                                   MODFLOW 6
                U.S. GEOLOGICAL SURVEY MODULAR HYDROLOGIC MODEL
                          GROUNDWATER FLOW MODEL (GWF)
                            VERSION 6.2.2 07/30/2021

   MODFLOW 6 compiled Jul 31 2021 14:59:11 with IFORT compiler (ver. 20.21.2)

This software has been approved for release by the U.S. Geological 
Survey (USGS). Although the software has been subjected to rigorous 
review, the USGS reserves the right to update the software as needed 
pursuant to further analysis and review. No warranty, expressed or 
implied, is made by the USGS or the U.S. Government as to the 
functionality of the software and related material nor shall the 
fact of release constitute any such warranty. Furthermore, the 
software is released on condition that neither the USGS nor the U.S. 
Government shall be held liable for any damages resulting from its 
authorized or unauthorized use. Also refer to the USGS Water 
Resources Software User Rights Notice for complete use, copyright, 
and distribution information.


System command used to initiate simulation:
python  c:\GitHub\CWatM\run_cwatm.py settings_CWatM-Bhima-30sec-contemporary.ini -l

MODFLOW was compiled using uniform precision.

Real Variables
  KIND: 8
  TINY (smallest non-zero value):    2.225074-308
  HUGE (largest value):    1.797693+308
  PRECISION: 15
  BIT SIZE: 64

Integer Variables
  KIND: 4
  HUGE (largest value): 2147483647
  BIT SIZE: 32

Long Integer Variables
  KIND: 8
  HUGE (largest value): 9223372036854775807
  BIT SIZE: 64

Logical Variables
  KIND: 4
  BIT SIZE: 32
 

 OPENED .\TRANSIENT.dis
 FILE TYPE:DIS6                   UNIT 1006   STATUS:OLD                 
 FORMAT:FORMATTED              ACCESS:SEQUENTIAL          
 ACTION:READ                


 OPENED .\TRANSIENT.ic
 FILE TYPE:IC6                    UNIT 1007   STATUS:OLD                 
 FORMAT:FORMATTED              ACCESS:SEQUENTIAL          
 ACTION:READ                


 OPENED .\TRANSIENT.npf
 FILE TYPE:NPF6                   UNIT 1008   STATUS:OLD                 
 FORMAT:FORMATTED              ACCESS:SEQUENTIAL          
 ACTION:READ                


 OPENED .\TRANSIENT.oc
 FILE TYPE:OC6                    UNIT 1009   STATUS:OLD                 
 FORMAT:FORMATTED              ACCESS:SEQUENTIAL          
 ACTION:READ                


 OPENED .\TRANSIENT.sto
 FILE TYPE:STO6                   UNIT 1010   STATUS:OLD                 
 FORMAT:FORMATTED              ACCESS:SEQUENTIAL          
 ACTION:READ                


 OPENED .\TRANSIENT.rch
 FILE TYPE:RCH6                   UNIT 1011   STATUS:OLD                 
 FORMAT:FORMATTED              ACCESS:SEQUENTIAL          
 ACTION:READ                


 OPENED .\TRANSIENT.wel
 FILE TYPE:WEL6                   UNIT 1012   STATUS:OLD                 
 FORMAT:FORMATTED              ACCESS:SEQUENTIAL          
 ACTION:READ                


 OPENED .\TRANSIENT.drn
 FILE TYPE:DRN6                   UNIT 1013   STATUS:OLD                 
 FORMAT:FORMATTED              ACCESS:SEQUENTIAL          
 ACTION:READ                

 NAMEFILE OPTIONS:
    NEWTON-RAPHSON method enabled for the model.
    NEWTON-RAPHSON UNDER-RELAXATION based on the bottom elevation of the model will be applied to the model.

 DIS -- STRUCTURED GRID DISCRETIZATION PACKAGE, VERSION 2 : 3/27/2014 - INPUT READ FROM UNIT 1006


 # File generated by Flopy version 3.3.5 on 06/19/2023 at 17:35:19.
 PROCESSING DISCRETIZATION OPTIONS
    BINARY GRB FILE WILL NOT BE WRITTEN
 END OF DISCRETIZATION OPTIONS
 MODEL LENGTH UNIT IS UNDEFINED
 PROCESSING DISCRETIZATION DIMENSIONS
    NLAY =       1
    NROW =     593
    NCOL =     658
 END OF DISCRETIZATION DIMENSIONS
 PROCESSING GRIDDATA

                     DELR =   500.0000    

                     DELC =   500.0000    
 END PROCESSING GRIDDATA

 THE SPECIFIED IDOMAIN RESULTS IN A REDUCED NUMBER OF CELLS.
 NUMBER OF USER NODES: 390194
 NUMBER OF NODES IN SOLUTION: 187611



 NPF -- NODE PROPERTY FLOW PACKAGE, VERSION 1, 3/30/2015 INPUT READ FROM UNIT 1008


 # File generated by Flopy version 3.3.5 on 06/19/2023 at 17:35:25.
 PROCESSING NPF OPTIONS
    CELL-BY-CELL FLOW INFORMATION WILL BE SAVED TO BINARY FILE WHENEVER ICBCFL IS NOT ZERO.
 END OF NPF OPTIONS

 WEL   -- WEL PACKAGE, VERSION 8, 2/22/2014 INPUT READ FROM UNIT 1012
 # File generated by Flopy version 3.3.5 on 06/19/2023 at 17:35:30.

 PROCESSING WEL OPTIONS
    AUTOMATIC FLOW REDUCTION OF WELLS IMPLEMENTED.
    AUTOMATIC FLOW REDUCTION FRACTION (  0.1000000    ).
 END OF WEL OPTIONS

 PROCESSING WEL DIMENSIONS
    MAXBOUND =  187611
 END OF WEL DIMENSIONS

 DRN   -- DRN PACKAGE, VERSION 8, 2/22/2014 INPUT READ FROM UNIT 1013
 # File generated by Flopy version 3.3.5 on 06/19/2023 at 17:35:32.

 PROCESSING DRN OPTIONS
 END OF DRN OPTIONS

 PROCESSING DRN DIMENSIONS
    MAXBOUND =  187611
 END OF DRN DIMENSIONS

 RCH   -- RCH PACKAGE, VERSION 8, 2/22/2014 INPUT READ FROM UNIT 1011
 # File generated by Flopy version 3.3.5 on 06/19/2023 at 17:35:28.

 PROCESSING RCH OPTIONS
 END OF RCH OPTIONS

 PROCESSING RCH DIMENSIONS
    MAXBOUND =  187611
 END OF RCH DIMENSIONS

 IC -- INITIAL CONDITIONS PACKAGE, VERSION 8, 3/28/2015 INPUT READ FROM UNIT 1007
 # File generated by Flopy version 3.3.5 on 06/19/2023 at 17:35:23.
 PROCESSING GRIDDATA
 END PROCESSING GRIDDATA
 PROCESSING GRIDDATA

                ICELLTYPE = 1
 K33 not provided.  Assuming K33 = K.
 K22 not provided.  Assuming K22 = K.
 END PROCESSING GRIDDATA

 STO -- STORAGE PACKAGE, VERSION 1, 5/19/2014 INPUT READ FROM UNIT 1010


 # File generated by Flopy version 3.3.5 on 06/19/2023 at 17:35:26.
 PROCESSING STORAGE OPTIONS
 END OF STORAGE OPTIONS
 PROCESSING GRIDDATA

                 ICONVERT = 1

         SPECIFIC STORAGE =   0.000000    
 END PROCESSING GRIDDATA
      THE LAST TIME STEP WILL BE PRINTED
      THE LAST TIME STEP WILL BE PRINTED
 # File generated by Flopy version 3.3.5 on 06/19/2023 at 17:35:26.

 PROCESSING OC OPTIONS

    HEAD INFORMATION WILL BE WRITTEN TO:
      UNIT NUMBER: 1015
      FILE NAME: TRANSIENT.hds

 OPENED TRANSIENT.hds
 FILE TYPE:DATA(BINARY)   UNIT 1015   STATUS:REPLACE             
 FORMAT:UNFORMATTED            ACCESS:STREAM              
 ACTION:READWRITE           

 END OF OC OPTIONS

start timestep kper="1" kstp="1" mode="normal"


 BEGIN READING OUTPUT CONTROL FOR STRESS PERIOD 1
      THE FOLLOWING FREQUENCY WILL BE SAVED: 10

 END READING OUTPUT CONTROL FOR STRESS PERIOD 1


 PROCESSING STORAGE PERIOD DATA
 END PROCESSING STORAGE PERIOD DATA


 STRESS PERIOD 1 IS TRANSIENT



  VOLUME BUDGET FOR ENTIRE MODEL AT END OF TIME STEP    1, STRESS PERIOD   1
  ---------------------------------------------------------------------------------------------------

     CUMULATIVE VOLUME      L**3       RATES FOR THIS TIME STEP      L**3/T          PACKAGE NAME    
     ------------------                 ------------------------                     ----------------

           IN:                                      IN:
           ---                                      ---
              STO-SS =           0.0000                STO-SS =           0.0000     STORAGE         
              STO-SY =    81600315.7417                STO-SY =    81600315.7417     STORAGE         
                 WEL =           0.0000                   WEL =           0.0000     WEL_0           
                 DRN =           0.0000                   DRN =           0.0000     DRN_0           
                 RCH =    40042609.8812                   RCH =    40042609.8812     RCH_0           

            TOTAL IN =   121642925.6230              TOTAL IN =   121642925.6230

          OUT:                                     OUT:
          ----                                     ----
              STO-SS =           0.0000                STO-SS =           0.0000     STORAGE         
              STO-SY =     9550012.6893                STO-SY =     9550012.6893     STORAGE         
                 WEL =    77708148.0124                   WEL =    77708148.0124     WEL_0           
                 DRN =    34384764.9360                   DRN =    34384764.9360     DRN_0           
                 RCH =           0.0000                   RCH =           0.0000     RCH_0           

           TOTAL OUT =   121642925.6377             TOTAL OUT =   121642925.6377

            IN - OUT =      -1.4708E-02              IN - OUT =      -1.4708E-02

 PERCENT DISCREPANCY =          -0.00     PERCENT DISCREPANCY =          -0.00




         TIME SUMMARY AT END OF TIME STEP    1 IN STRESS PERIOD    1
                          TIME STEP LENGTH =    1.00000    
                        STRESS PERIOD TIME =    1.00000    
                     TOTAL SIMULATION TIME =    1.00000    

end timestep


start timestep kper="2" kstp="1" mode="normal"


 END OF FILE DETECTED IN OUTPUT CONTROL.
 CURRENT OUTPUT CONTROL SETTINGS WILL BE 
 REPEATED UNTIL THE END OF THE SIMULATION.

 OUTPUT CONTROL FOR STRESS PERIOD 2 IS REPEATED USING SETTINGS FROM A PREVIOUS STRESS PERIOD.


 STRESS PERIOD 2 IS TRANSIENT


 REUSING WELS FROM LAST STRESS PERIOD

 REUSING DRNS FROM LAST STRESS PERIOD

 REUSING RCHS FROM LAST STRESS PERIOD


  VOLUME BUDGET FOR ENTIRE MODEL AT END OF TIME STEP    1, STRESS PERIOD   2
  ---------------------------------------------------------------------------------------------------

     CUMULATIVE VOLUME      L**3       RATES FOR THIS TIME STEP      L**3/T          PACKAGE NAME    
     ------------------                 ------------------------                     ----------------

           IN:                                      IN:
           ---                                      ---
              STO-SS =           0.0000                STO-SS =           0.0000     STORAGE         
              STO-SY =   114423310.1118                STO-SY =    32822994.3701     STORAGE         
                 WEL =           0.0000                   WEL =           0.0000     WEL_0           
                 DRN =           0.0000                   DRN =           0.0000     DRN_0           
                 RCH =   175499716.0049                   RCH =   135457106.1236     RCH_0           

            TOTAL IN =   289923026.1167              TOTAL IN =   168280100.4937

          OUT:                                     OUT:
          ----                                     ----
              STO-SS =           0.0000                STO-SS =           0.0000     STORAGE         
              STO-SY =    62538052.7120                STO-SY =    52988040.0227     STORAGE         
                 WEL =   125900556.7447                   WEL =    48192408.7323     WEL_0           
                 DRN =   101484416.6655                   DRN =    67099651.7296     DRN_0           
                 RCH =           0.0000                   RCH =           0.0000     RCH_0           

           TOTAL OUT =   289923026.1223             TOTAL OUT =   168280100.4846

            IN - OUT =      -5.5729E-03              IN - OUT =       9.1349E-03

 PERCENT DISCREPANCY =          -0.00     PERCENT DISCREPANCY =           0.00




         TIME SUMMARY AT END OF TIME STEP    1 IN STRESS PERIOD    2
                          TIME STEP LENGTH =    1.00000    
                        STRESS PERIOD TIME =    1.00000    
                     TOTAL SIMULATION TIME =    2.00000    

end timestep


start timestep kper="3" kstp="1" mode="normal"


 OUTPUT CONTROL FOR STRESS PERIOD 3 IS REPEATED USING SETTINGS FROM A PREVIOUS STRESS PERIOD.


 STRESS PERIOD 3 IS TRANSIENT


 REUSING WELS FROM LAST STRESS PERIOD

 REUSING DRNS FROM LAST STRESS PERIOD

 REUSING RCHS FROM LAST STRESS PERIOD


  VOLUME BUDGET FOR ENTIRE MODEL AT END OF TIME STEP    1, STRESS PERIOD   3
  ---------------------------------------------------------------------------------------------------

     CUMULATIVE VOLUME      L**3       RATES FOR THIS TIME STEP      L**3/T          PACKAGE NAME    
     ------------------                 ------------------------                     ----------------

           IN:                                      IN:
           ---                                      ---
              STO-SS =           0.0000                STO-SS =           0.0000     STORAGE         
              STO-SY =   121553196.7296                STO-SY =     7129886.6178     STORAGE         
                 WEL =           0.0000                   WEL =           0.0000     WEL_0           
                 DRN =           0.0000                   DRN =           0.0000     DRN_0           
                 RCH =   295527932.1602                   RCH =   120028216.1553     RCH_0           

            TOTAL IN =   417081128.8898              TOTAL IN =   127158102.7731

          OUT:                                     OUT:
          ----                                     ----
              STO-SS =           0.0000                STO-SS =           0.0000     STORAGE         
              STO-SY =   133089537.6625                STO-SY =    70551484.9505     STORAGE         
                 WEL =   130339148.8688                   WEL =     4438592.1241     WEL_0           
                 DRN =   153652442.2011                   DRN =    52168025.5356     DRN_0           
                 RCH =           0.0000                   RCH =           0.0000     RCH_0           

           TOTAL OUT =   417081128.7324             TOTAL OUT =   127158102.6101

            IN - OUT =           0.1574              IN - OUT =           0.1630

 PERCENT DISCREPANCY =           0.00     PERCENT DISCREPANCY =           0.00




         TIME SUMMARY AT END OF TIME STEP    1 IN STRESS PERIOD    3
                          TIME STEP LENGTH =    1.00000    
                        STRESS PERIOD TIME =    1.00000    
                     TOTAL SIMULATION TIME =    3.00000    

end timestep


start timestep kper="4" kstp="1" mode="normal"


 OUTPUT CONTROL FOR STRESS PERIOD 4 IS REPEATED USING SETTINGS FROM A PREVIOUS STRESS PERIOD.


 STRESS PERIOD 4 IS TRANSIENT


 REUSING WELS FROM LAST STRESS PERIOD

 REUSING DRNS FROM LAST STRESS PERIOD

 REUSING RCHS FROM LAST STRESS PERIOD


  VOLUME BUDGET FOR ENTIRE MODEL AT END OF TIME STEP    1, STRESS PERIOD   4
  ---------------------------------------------------------------------------------------------------

     CUMULATIVE VOLUME      L**3       RATES FOR THIS TIME STEP      L**3/T          PACKAGE NAME    
     ------------------                 ------------------------                     ----------------

           IN:                                      IN:
           ---                                      ---
              STO-SS =           0.0000                STO-SS =           0.0000     STORAGE         
              STO-SY =   134809107.6216                STO-SY =    13255910.8920     STORAGE         
                 WEL =           0.0000                   WEL =           0.0000     WEL_0           
                 DRN =           0.0000                   DRN =           0.0000     DRN_0           
                 RCH =   366606161.7623                   RCH =    71078229.6021     RCH_0           

            TOTAL IN =   501415269.3838              TOTAL IN =    84334140.4941

          OUT:                                     OUT:
          ----                                     ----
              STO-SS =           0.0000                STO-SS =           0.0000     STORAGE         
              STO-SY =   158873611.8438                STO-SY =    25784074.1813     STORAGE         
                 WEL =   139530250.3143                   WEL =     9191101.4456     WEL_0           
                 DRN =   203011371.6762                   DRN =    49358929.4750     DRN_0           
                 RCH =           0.0000                   RCH =           0.0000     RCH_0           

           TOTAL OUT =   501415233.8342             TOTAL OUT =    84334105.1019

            IN - OUT =          35.5496              IN - OUT =          35.3922

 PERCENT DISCREPANCY =           0.00     PERCENT DISCREPANCY =           0.00




         TIME SUMMARY AT END OF TIME STEP    1 IN STRESS PERIOD    4
                          TIME STEP LENGTH =    1.00000    
                        STRESS PERIOD TIME =    1.00000    
                     TOTAL SIMULATION TIME =    4.00000    

end timestep


start timestep kper="5" kstp="1" mode="normal"


 OUTPUT CONTROL FOR STRESS PERIOD 5 IS REPEATED USING SETTINGS FROM A PREVIOUS STRESS PERIOD.


 STRESS PERIOD 5 IS TRANSIENT


 REUSING WELS FROM LAST STRESS PERIOD

 REUSING DRNS FROM LAST STRESS PERIOD

 REUSING RCHS FROM LAST STRESS PERIOD


  VOLUME BUDGET FOR ENTIRE MODEL AT END OF TIME STEP    1, STRESS PERIOD   5
  ---------------------------------------------------------------------------------------------------

     CUMULATIVE VOLUME      L**3       RATES FOR THIS TIME STEP      L**3/T          PACKAGE NAME    
     ------------------                 ------------------------                     ----------------

           IN:                                      IN:
           ---                                      ---
              STO-SS =           0.0000                STO-SS =           0.0000     STORAGE         
              STO-SY =   155692517.0759                STO-SY =    20883409.4544     STORAGE         
                 WEL =           0.0000                   WEL =           0.0000     WEL_0           
                 DRN =           0.0000                   DRN =           0.0000     DRN_0           
                 RCH =   412838378.0413                   RCH =    46232216.2790     RCH_0           

            TOTAL IN =   568530895.1172              TOTAL IN =    67115625.7334

          OUT:                                     OUT:
          ----                                     ----
              STO-SS =           0.0000                STO-SS =           0.0000     STORAGE         
              STO-SY =   175027802.4850                STO-SY =    16154190.6412     STORAGE         
                 WEL =   148018647.6720                   WEL =     8488397.3577     WEL_0           
                 DRN =   245484397.6111                   DRN =    42473025.9349     DRN_0           
                 RCH =           0.0000                   RCH =           0.0000     RCH_0           

           TOTAL OUT =   568530847.7681             TOTAL OUT =    67115613.9338

            IN - OUT =          47.3491              IN - OUT =          11.7995

 PERCENT DISCREPANCY =           0.00     PERCENT DISCREPANCY =           0.00




         TIME SUMMARY AT END OF TIME STEP    1 IN STRESS PERIOD    5
                          TIME STEP LENGTH =    1.00000    
                        STRESS PERIOD TIME =    1.00000    
                     TOTAL SIMULATION TIME =    5.00000    

end timestep


start timestep kper="6" kstp="1" mode="normal"


 OUTPUT CONTROL FOR STRESS PERIOD 6 IS REPEATED USING SETTINGS FROM A PREVIOUS STRESS PERIOD.


 STRESS PERIOD 6 IS TRANSIENT


 REUSING WELS FROM LAST STRESS PERIOD

 REUSING DRNS FROM LAST STRESS PERIOD

 REUSING RCHS FROM LAST STRESS PERIOD


  VOLUME BUDGET FOR ENTIRE MODEL AT END OF TIME STEP    1, STRESS PERIOD   6
  ---------------------------------------------------------------------------------------------------

     CUMULATIVE VOLUME      L**3       RATES FOR THIS TIME STEP      L**3/T          PACKAGE NAME    
     ------------------                 ------------------------                     ----------------

           IN:                                      IN:
           ---                                      ---
              STO-SS =           0.0000                STO-SS =           0.0000     STORAGE         
              STO-SY =   184448827.1006                STO-SY =    28756310.0246     STORAGE         
                 WEL =           0.0000                   WEL =           0.0000     WEL_0           
                 DRN =           0.0000                   DRN =           0.0000     DRN_0           
                 RCH =   435860218.2002                   RCH =    23021840.1590     RCH_0           

            TOTAL IN =   620309045.3008              TOTAL IN =    51778150.1836

          OUT:                                     OUT:
          ----                                     ----
              STO-SS =           0.0000                STO-SS =           0.0000     STORAGE         
              STO-SY =   180046038.8856                STO-SY =     5018236.4007     STORAGE         
                 WEL =   153414970.9221                   WEL =     5396323.2500     WEL_0           
                 DRN =   286847987.4181                   DRN =    41363589.8070     DRN_0           
                 RCH =           0.0000                   RCH =           0.0000     RCH_0           

           TOTAL OUT =   620308997.2258             TOTAL OUT =    51778149.4577

            IN - OUT =          48.0750              IN - OUT =           0.7259

 PERCENT DISCREPANCY =           0.00     PERCENT DISCREPANCY =           0.00




         TIME SUMMARY AT END OF TIME STEP    1 IN STRESS PERIOD    6
                          TIME STEP LENGTH =    1.00000    
                        STRESS PERIOD TIME =    1.00000    
                     TOTAL SIMULATION TIME =    6.00000    

end timestep


start timestep kper="7" kstp="1" mode="normal"


 OUTPUT CONTROL FOR STRESS PERIOD 7 IS REPEATED USING SETTINGS FROM A PREVIOUS STRESS PERIOD.


 STRESS PERIOD 7 IS TRANSIENT


 REUSING WELS FROM LAST STRESS PERIOD

 REUSING DRNS FROM LAST STRESS PERIOD

 REUSING RCHS FROM LAST STRESS PERIOD


  VOLUME BUDGET FOR ENTIRE MODEL AT END OF TIME STEP    1, STRESS PERIOD   7
  ---------------------------------------------------------------------------------------------------

     CUMULATIVE VOLUME      L**3       RATES FOR THIS TIME STEP      L**3/T          PACKAGE NAME    
     ------------------                 ------------------------                     ----------------

           IN:                                      IN:
           ---                                      ---
              STO-SS =           0.0000                STO-SS =           0.0000     STORAGE         
              STO-SY =   218149801.8545                STO-SY =    33700974.7539     STORAGE         
                 WEL =           0.0000                   WEL =           0.0000     WEL_0           
                 DRN =           0.0000                   DRN =           0.0000     DRN_0           
                 RCH =   449255829.1947                   RCH =    13395610.9945     RCH_0           

            TOTAL IN =   667405631.0492              TOTAL IN =    47096585.7484

          OUT:                                     OUT:
          ----                                     ----
              STO-SS =           0.0000                STO-SS =           0.0000     STORAGE         
              STO-SY =   182727269.5491                STO-SY =     2681230.6635     STORAGE         
                 WEL =   160029602.9328                   WEL =     6614632.0107     WEL_0           
                 DRN =   324648709.7577                   DRN =    37800722.3396     DRN_0           
                 RCH =           0.0000                   RCH =           0.0000     RCH_0           

           TOTAL OUT =   667405582.2396             TOTAL OUT =    47096585.0138

            IN - OUT =          48.8096              IN - OUT =           0.7346

 PERCENT DISCREPANCY =           0.00     PERCENT DISCREPANCY =           0.00




         TIME SUMMARY AT END OF TIME STEP    1 IN STRESS PERIOD    7
                          TIME STEP LENGTH =    1.00000    
                        STRESS PERIOD TIME =    1.00000    
                     TOTAL SIMULATION TIME =    7.00000    

end timestep


start timestep kper="8" kstp="1" mode="normal"


 OUTPUT CONTROL FOR STRESS PERIOD 8 IS REPEATED USING SETTINGS FROM A PREVIOUS STRESS PERIOD.


 STRESS PERIOD 8 IS TRANSIENT


 REUSING WELS FROM LAST STRESS PERIOD

 REUSING DRNS FROM LAST STRESS PERIOD

 REUSING RCHS FROM LAST STRESS PERIOD


  VOLUME BUDGET FOR ENTIRE MODEL AT END OF TIME STEP    1, STRESS PERIOD   8
  ---------------------------------------------------------------------------------------------------

     CUMULATIVE VOLUME      L**3       RATES FOR THIS TIME STEP      L**3/T          PACKAGE NAME    
     ------------------                 ------------------------                     ----------------

           IN:                                      IN:
           ---                                      ---
              STO-SS =           0.0000                STO-SS =           0.0000     STORAGE         
              STO-SY =   247963763.8142                STO-SY =    29813961.9597     STORAGE         
                 WEL =           0.0000                   WEL =           0.0000     WEL_0           
                 DRN =           0.0000                   DRN =           0.0000     DRN_0           
                 RCH =   477533228.1575                   RCH =    28277398.9628     RCH_0           

            TOTAL IN =   725496991.9717              TOTAL IN =    58091360.9225

          OUT:                                     OUT:
          ----                                     ----
              STO-SS =           0.0000                STO-SS =           0.0000     STORAGE         
              STO-SY =   189362872.5209                STO-SY =     6635602.9718     STORAGE         
                 WEL =   170714134.6538                   WEL =    10684531.7210     WEL_0           
                 DRN =   365419935.9656                   DRN =    40771226.2079     DRN_0           
                 RCH =           0.0000                   RCH =           0.0000     RCH_0           

           TOTAL OUT =   725496943.1403             TOTAL OUT =    58091360.9007

            IN - OUT =          48.8314              IN - OUT =       2.1772E-02

 PERCENT DISCREPANCY =           0.00     PERCENT DISCREPANCY =           0.00




         TIME SUMMARY AT END OF TIME STEP    1 IN STRESS PERIOD    8
                          TIME STEP LENGTH =    1.00000    
                        STRESS PERIOD TIME =    1.00000    
                     TOTAL SIMULATION TIME =    8.00000    

end timestep


start timestep kper="9" kstp="1" mode="normal"


 OUTPUT CONTROL FOR STRESS PERIOD 9 IS REPEATED USING SETTINGS FROM A PREVIOUS STRESS PERIOD.


 STRESS PERIOD 9 IS TRANSIENT


 REUSING WELS FROM LAST STRESS PERIOD

 REUSING DRNS FROM LAST STRESS PERIOD

 REUSING RCHS FROM LAST STRESS PERIOD


  VOLUME BUDGET FOR ENTIRE MODEL AT END OF TIME STEP    1, STRESS PERIOD   9
  ---------------------------------------------------------------------------------------------------

     CUMULATIVE VOLUME      L**3       RATES FOR THIS TIME STEP      L**3/T          PACKAGE NAME    
     ------------------                 ------------------------                     ----------------

           IN:                                      IN:
           ---                                      ---
              STO-SS =           0.0000                STO-SS =           0.0000     STORAGE         
              STO-SY =   257129157.3429                STO-SY =     9165393.5287     STORAGE         
                 WEL =           0.0000                   WEL =           0.0000     WEL_0           
                 DRN =           0.0000                   DRN =           0.0000     DRN_0           
                 RCH =   615702685.7433                   RCH =   138169457.5858     RCH_0           

            TOTAL IN =   872831843.0862              TOTAL IN =   147334851.1145

          OUT:                                     OUT:
          ----                                     ----
              STO-SS =           0.0000                STO-SS =           0.0000     STORAGE         
              STO-SY =   266973738.0727                STO-SY =    77610865.5518     STORAGE         
                 WEL =   172634768.9287                   WEL =     1920634.2749     WEL_0           
                 DRN =   433223292.5904                   DRN =    67803356.6248     DRN_0           
                 RCH =           0.0000                   RCH =           0.0000     RCH_0           

           TOTAL OUT =   872831799.5918             TOTAL OUT =   147334856.4515

            IN - OUT =          43.4944              IN - OUT =          -5.3370

 PERCENT DISCREPANCY =           0.00     PERCENT DISCREPANCY =          -0.00




         TIME SUMMARY AT END OF TIME STEP    1 IN STRESS PERIOD    9
                          TIME STEP LENGTH =    1.00000    
                        STRESS PERIOD TIME =    1.00000    
                     TOTAL SIMULATION TIME =    9.00000    

end timestep


start timestep kper="10" kstp="1" mode="normal"


 OUTPUT CONTROL FOR STRESS PERIOD 10 IS REPEATED USING SETTINGS FROM A PREVIOUS STRESS PERIOD.


 STRESS PERIOD 10 IS TRANSIENT


 REUSING WELS FROM LAST STRESS PERIOD

 REUSING DRNS FROM LAST STRESS PERIOD

 REUSING RCHS FROM LAST STRESS PERIOD


  VOLUME BUDGET FOR ENTIRE MODEL AT END OF TIME STEP    1, STRESS PERIOD  10
  ---------------------------------------------------------------------------------------------------

     CUMULATIVE VOLUME      L**3       RATES FOR THIS TIME STEP      L**3/T          PACKAGE NAME    
     ------------------                 ------------------------                     ----------------

           IN:                                      IN:
           ---                                      ---
              STO-SS =           0.0000                STO-SS =           0.0000     STORAGE         
              STO-SY =   268065905.8052                STO-SY =    10936748.4623     STORAGE         
                 WEL =           0.0000                   WEL =           0.0000     WEL_0           
                 DRN =           0.0000                   DRN =           0.0000     DRN_0           
                 RCH =   725713016.4639                   RCH =   110010330.7206     RCH_0           

            TOTAL IN =   993778922.2691              TOTAL IN =   120947079.1829

          OUT:                                     OUT:
          ----                                     ----
              STO-SS =           0.0000                STO-SS =           0.0000     STORAGE         
              STO-SY =   324077327.7443                STO-SY =    57103589.6716     STORAGE         
                 WEL =   174589510.6965                   WEL =     1954741.7678     WEL_0           
                 DRN =   495112037.1592                   DRN =    61888744.5688     DRN_0           
                 RCH =           0.0000                   RCH =           0.0000     RCH_0           

           TOTAL OUT =   993778875.6000             TOTAL OUT =   120947076.0082

            IN - OUT =          46.6691              IN - OUT =           3.1747

 PERCENT DISCREPANCY =           0.00     PERCENT DISCREPANCY =           0.00




         TIME SUMMARY AT END OF TIME STEP    1 IN STRESS PERIOD   10
                          TIME STEP LENGTH =    1.00000    
                        STRESS PERIOD TIME =    1.00000    
                     TOTAL SIMULATION TIME =    10.0000    

end timestep


start timestep kper="11" kstp="1" mode="normal"


 OUTPUT CONTROL FOR STRESS PERIOD 11 IS REPEATED USING SETTINGS FROM A PREVIOUS STRESS PERIOD.


 STRESS PERIOD 11 IS TRANSIENT


 REUSING WELS FROM LAST STRESS PERIOD

 REUSING DRNS FROM LAST STRESS PERIOD

 REUSING RCHS FROM LAST STRESS PERIOD


  VOLUME BUDGET FOR ENTIRE MODEL AT END OF TIME STEP    1, STRESS PERIOD  11
  ---------------------------------------------------------------------------------------------------

     CUMULATIVE VOLUME      L**3       RATES FOR THIS TIME STEP      L**3/T          PACKAGE NAME    
     ------------------                 ------------------------                     ----------------

           IN:                                      IN:
           ---                                      ---
              STO-SS =           0.0000                STO-SS =           0.0000     STORAGE         
              STO-SY =   285778461.7175                STO-SY =    17712555.9123     STORAGE         
                 WEL =           0.0000                   WEL =           0.0000     WEL_0           
                 DRN =           0.0000                   DRN =           0.0000     DRN_0           
                 RCH =   823129532.1932                   RCH =    97416515.7293     RCH_0           

            TOTAL IN =  1108907993.9106              TOTAL IN =   115129071.6415

          OUT:                                     OUT:
          ----                                     ----
              STO-SS =           0.0000                STO-SS =           0.0000     STORAGE         
              STO-SY =   366512066.5754                STO-SY =    42434738.8311     STORAGE         
                 WEL =   176633940.4830                   WEL =     2044429.7865     WEL_0           
                 DRN =   565761940.8813                   DRN =    70649903.7221     DRN_0           
                 RCH =           0.0000                   RCH =           0.0000     RCH_0           

           TOTAL OUT =  1108907947.9397             TOTAL OUT =   115129072.3397

            IN - OUT =          45.9710              IN - OUT =          -0.6981

 PERCENT DISCREPANCY =           0.00     PERCENT DISCREPANCY =          -0.00




         TIME SUMMARY AT END OF TIME STEP    1 IN STRESS PERIOD   11
                          TIME STEP LENGTH =    1.00000    
                        STRESS PERIOD TIME =    1.00000    
                     TOTAL SIMULATION TIME =    11.0000    

end timestep


start timestep kper="12" kstp="1" mode="normal"


 OUTPUT CONTROL FOR STRESS PERIOD 12 IS REPEATED USING SETTINGS FROM A PREVIOUS STRESS PERIOD.


 STRESS PERIOD 12 IS TRANSIENT


 REUSING WELS FROM LAST STRESS PERIOD

 REUSING DRNS FROM LAST STRESS PERIOD

 REUSING RCHS FROM LAST STRESS PERIOD


  VOLUME BUDGET FOR ENTIRE MODEL AT END OF TIME STEP    1, STRESS PERIOD  12
  ---------------------------------------------------------------------------------------------------

     CUMULATIVE VOLUME      L**3       RATES FOR THIS TIME STEP      L**3/T          PACKAGE NAME    
     ------------------                 ------------------------                     ----------------

           IN:                                      IN:
           ---                                      ---
              STO-SS =           0.0000                STO-SS =           0.0000     STORAGE         
              STO-SY =   325411557.2570                STO-SY =    39633095.5396     STORAGE         
                 WEL =           0.0000                   WEL =           0.0000     WEL_0           
                 DRN =           0.0000                   DRN =           0.0000     DRN_0           
                 RCH =   853416459.4961                   RCH =    30286927.3029     RCH_0           

            TOTAL IN =  1178828016.7532              TOTAL IN =    69920022.8425

          OUT:                                     OUT:
          ----                                     ----
              STO-SS =           0.0000                STO-SS =           0.0000     STORAGE         
              STO-SY =   371908148.2517                STO-SY =     5396081.6762     STORAGE         
                 WEL =   194499138.5545                   WEL =    17865198.0715     WEL_0           
                 DRN =   612420695.1048                   DRN =    46658754.2235     DRN_0           
                 RCH =           0.0000                   RCH =           0.0000     RCH_0           

           TOTAL OUT =  1178827981.9109             TOTAL OUT =    69920033.9712

            IN - OUT =          34.8422              IN - OUT =         -11.1287

 PERCENT DISCREPANCY =           0.00     PERCENT DISCREPANCY =          -0.00




         TIME SUMMARY AT END OF TIME STEP    1 IN STRESS PERIOD   12
                          TIME STEP LENGTH =    1.00000    
                        STRESS PERIOD TIME =    1.00000    
                     TOTAL SIMULATION TIME =    12.0000    

end timestep


start timestep kper="13" kstp="1" mode="normal"


 OUTPUT CONTROL FOR STRESS PERIOD 13 IS REPEATED USING SETTINGS FROM A PREVIOUS STRESS PERIOD.


 STRESS PERIOD 13 IS TRANSIENT


 REUSING WELS FROM LAST STRESS PERIOD

 REUSING DRNS FROM LAST STRESS PERIOD

 REUSING RCHS FROM LAST STRESS PERIOD


  VOLUME BUDGET FOR ENTIRE MODEL AT END OF TIME STEP    1, STRESS PERIOD  13
  ---------------------------------------------------------------------------------------------------

     CUMULATIVE VOLUME      L**3       RATES FOR THIS TIME STEP      L**3/T          PACKAGE NAME    
     ------------------                 ------------------------                     ----------------

           IN:                                      IN:
           ---                                      ---
              STO-SS =           0.0000                STO-SS =           0.0000     STORAGE         
              STO-SY =   355910433.0421                STO-SY =    30498875.7851     STORAGE         
                 WEL =           0.0000                   WEL =           0.0000     WEL_0           
                 DRN =           0.0000                   DRN =           0.0000     DRN_0           
                 RCH =   876518404.1933                   RCH =    23101944.6972     RCH_0           

            TOTAL IN =  1232428837.2355              TOTAL IN =    53600820.4823

          OUT:                                     OUT:
          ----                                     ----
              STO-SS =           0.0000                STO-SS =           0.0000     STORAGE         
              STO-SY =   375740233.1714                STO-SY =     3832084.9197     STORAGE         
                 WEL =   201646264.9438                   WEL =     7147126.3893     WEL_0           
                 DRN =   655042303.6045                   DRN =    42621608.4998     DRN_0           
                 RCH =           0.0000                   RCH =           0.0000     RCH_0           

           TOTAL OUT =  1232428801.7197             TOTAL OUT =    53600819.8088

            IN - OUT =          35.5157              IN - OUT =           0.6735

 PERCENT DISCREPANCY =           0.00     PERCENT DISCREPANCY =           0.00




         TIME SUMMARY AT END OF TIME STEP    1 IN STRESS PERIOD   13
                          TIME STEP LENGTH =    1.00000    
                        STRESS PERIOD TIME =    1.00000    
                     TOTAL SIMULATION TIME =    13.0000    

end timestep


start timestep kper="14" kstp="1" mode="normal"


 OUTPUT CONTROL FOR STRESS PERIOD 14 IS REPEATED USING SETTINGS FROM A PREVIOUS STRESS PERIOD.


 STRESS PERIOD 14 IS TRANSIENT


 REUSING WELS FROM LAST STRESS PERIOD

 REUSING DRNS FROM LAST STRESS PERIOD

 REUSING RCHS FROM LAST STRESS PERIOD


  VOLUME BUDGET FOR ENTIRE MODEL AT END OF TIME STEP    1, STRESS PERIOD  14
  ---------------------------------------------------------------------------------------------------

     CUMULATIVE VOLUME      L**3       RATES FOR THIS TIME STEP      L**3/T          PACKAGE NAME    
     ------------------                 ------------------------                     ----------------

           IN:                                      IN:
           ---                                      ---
              STO-SS =           0.0000                STO-SS =           0.0000     STORAGE         
              STO-SY =   395371806.6546                STO-SY =    39461373.6125     STORAGE         
                 WEL =           0.0000                   WEL =           0.0000     WEL_0           
                 DRN =           0.0000                   DRN =           0.0000     DRN_0           
                 RCH =   922258073.9053                   RCH =    45739669.7119     RCH_0           

            TOTAL IN =  1317629880.5598              TOTAL IN =    85201043.3244

          OUT:                                     OUT:
          ----                                     ----
              STO-SS =           0.0000                STO-SS =           0.0000     STORAGE         
              STO-SY =   382517308.1795                STO-SY =     6777075.0082     STORAGE         
                 WEL =   232468748.3417                   WEL =    30822483.3979     WEL_0           
                 DRN =   702643788.4533                   DRN =    47601484.8488     DRN_0           
                 RCH =           0.0000                   RCH =           0.0000     RCH_0           

           TOTAL OUT =  1317629844.9746             TOTAL OUT =    85201043.2548

            IN - OUT =          35.5853              IN - OUT =       6.9545E-02

 PERCENT DISCREPANCY =           0.00     PERCENT DISCREPANCY =           0.00




         TIME SUMMARY AT END OF TIME STEP    1 IN STRESS PERIOD   14
                          TIME STEP LENGTH =    1.00000    
                        STRESS PERIOD TIME =    1.00000    
                     TOTAL SIMULATION TIME =    14.0000    

end timestep


start timestep kper="15" kstp="1" mode="normal"


 OUTPUT CONTROL FOR STRESS PERIOD 15 IS REPEATED USING SETTINGS FROM A PREVIOUS STRESS PERIOD.


 STRESS PERIOD 15 IS TRANSIENT


 REUSING WELS FROM LAST STRESS PERIOD

 REUSING DRNS FROM LAST STRESS PERIOD

 REUSING RCHS FROM LAST STRESS PERIOD


  VOLUME BUDGET FOR ENTIRE MODEL AT END OF TIME STEP    1, STRESS PERIOD  15
  ---------------------------------------------------------------------------------------------------

     CUMULATIVE VOLUME      L**3       RATES FOR THIS TIME STEP      L**3/T          PACKAGE NAME    
     ------------------                 ------------------------                     ----------------

           IN:                                      IN:
           ---                                      ---
              STO-SS =           0.0000                STO-SS =           0.0000     STORAGE         
              STO-SY =   421211174.2028                STO-SY =    25839367.5483     STORAGE         
                 WEL =           0.0000                   WEL =           0.0000     WEL_0           
                 DRN =           0.0000                   DRN =           0.0000     DRN_0           
                 RCH =   947392494.8194                   RCH =    25134420.9141     RCH_0           

            TOTAL IN =  1368603669.0222              TOTAL IN =    50973788.4624

          OUT:                                     OUT:
          ----                                     ----
              STO-SS =           0.0000                STO-SS =           0.0000     STORAGE         
              STO-SY =   386051769.6226                STO-SY =     3534461.4431     STORAGE         
                 WEL =   237844556.9031                   WEL =     5375808.5613     WEL_0           
                 DRN =   744707313.3611                   DRN =    42063524.9079     DRN_0           
                 RCH =           0.0000                   RCH =           0.0000     RCH_0           

           TOTAL OUT =  1368603639.8868             TOTAL OUT =    50973794.9122

            IN - OUT =          29.1354              IN - OUT =          -6.4499

 PERCENT DISCREPANCY =           0.00     PERCENT DISCREPANCY =          -0.00




         TIME SUMMARY AT END OF TIME STEP    1 IN STRESS PERIOD   15
                          TIME STEP LENGTH =    1.00000    
                        STRESS PERIOD TIME =    1.00000    
                     TOTAL SIMULATION TIME =    15.0000    

end timestep


start timestep kper="16" kstp="1" mode="normal"


 OUTPUT CONTROL FOR STRESS PERIOD 16 IS REPEATED USING SETTINGS FROM A PREVIOUS STRESS PERIOD.


 STRESS PERIOD 16 IS TRANSIENT


 REUSING WELS FROM LAST STRESS PERIOD

 REUSING DRNS FROM LAST STRESS PERIOD

 REUSING RCHS FROM LAST STRESS PERIOD


  VOLUME BUDGET FOR ENTIRE MODEL AT END OF TIME STEP    1, STRESS PERIOD  16
  ---------------------------------------------------------------------------------------------------

     CUMULATIVE VOLUME      L**3       RATES FOR THIS TIME STEP      L**3/T          PACKAGE NAME    
     ------------------                 ------------------------                     ----------------

           IN:                                      IN:
           ---                                      ---
              STO-SS =           0.0000                STO-SS =           0.0000     STORAGE         
              STO-SY =   439091938.7467                STO-SY =    17880764.5439     STORAGE         
                 WEL =           0.0000                   WEL =           0.0000     WEL_0           
                 DRN =           0.0000                   DRN =           0.0000     DRN_0           
                 RCH =   984482340.9415                   RCH =    37089846.1221     RCH_0           

            TOTAL IN =  1423574279.6882              TOTAL IN =    54970610.6660

          OUT:                                     OUT:
          ----                                     ----
              STO-SS =           0.0000                STO-SS =           0.0000     STORAGE         
              STO-SY =   392670675.9283                STO-SY =     6618906.3057     STORAGE         
                 WEL =   240021780.6349                   WEL =     2177223.7319     WEL_0           
                 DRN =   790881784.6618                   DRN =    46174471.3007     DRN_0           
                 RCH =           0.0000                   RCH =           0.0000     RCH_0           

           TOTAL OUT =  1423574241.2250             TOTAL OUT =    54970601.3382

            IN - OUT =          38.4632              IN - OUT =           9.3277

 PERCENT DISCREPANCY =           0.00     PERCENT DISCREPANCY =           0.00




         TIME SUMMARY AT END OF TIME STEP    1 IN STRESS PERIOD   16
                          TIME STEP LENGTH =    1.00000    
                        STRESS PERIOD TIME =    1.00000    
                     TOTAL SIMULATION TIME =    16.0000    

end timestep


start timestep kper="17" kstp="1" mode="normal"


 OUTPUT CONTROL FOR STRESS PERIOD 17 IS REPEATED USING SETTINGS FROM A PREVIOUS STRESS PERIOD.


 STRESS PERIOD 17 IS TRANSIENT


 REUSING WELS FROM LAST STRESS PERIOD

 REUSING DRNS FROM LAST STRESS PERIOD

 REUSING RCHS FROM LAST STRESS PERIOD


  VOLUME BUDGET FOR ENTIRE MODEL AT END OF TIME STEP    1, STRESS PERIOD  17
  ---------------------------------------------------------------------------------------------------

     CUMULATIVE VOLUME      L**3       RATES FOR THIS TIME STEP      L**3/T          PACKAGE NAME    
     ------------------                 ------------------------                     ----------------

           IN:                                      IN:
           ---                                      ---
              STO-SS =           0.0000                STO-SS =           0.0000     STORAGE         
              STO-SY =   467059732.6340                STO-SY =    27967793.8873     STORAGE         
                 WEL =           0.0000                   WEL =           0.0000     WEL_0           
                 DRN =           0.0000                   DRN =           0.0000     DRN_0           
                 RCH =  1015409589.3326                   RCH =    30927248.3911     RCH_0           

            TOTAL IN =  1482469321.9666              TOTAL IN =    58895042.2784

          OUT:                                     OUT:
          ----                                     ----
              STO-SS =           0.0000                STO-SS =           0.0000     STORAGE         
              STO-SY =   397693708.5769                STO-SY =     5023032.6486     STORAGE         
                 WEL =   252595189.3146                   WEL =    12573408.6796     WEL_0           
                 DRN =   832180386.2132                   DRN =    41298601.5513     DRN_0           
                 RCH =           0.0000                   RCH =           0.0000     RCH_0           

           TOTAL OUT =  1482469284.1046             TOTAL OUT =    58895042.8796

            IN - OUT =          37.8619              IN - OUT =          -0.6012

 PERCENT DISCREPANCY =           0.00     PERCENT DISCREPANCY =          -0.00




         TIME SUMMARY AT END OF TIME STEP    1 IN STRESS PERIOD   17
                          TIME STEP LENGTH =    1.00000    
                        STRESS PERIOD TIME =    1.00000    
                     TOTAL SIMULATION TIME =    17.0000    

end timestep


start timestep kper="18" kstp="1" mode="normal"


 OUTPUT CONTROL FOR STRESS PERIOD 18 IS REPEATED USING SETTINGS FROM A PREVIOUS STRESS PERIOD.


 STRESS PERIOD 18 IS TRANSIENT


 REUSING WELS FROM LAST STRESS PERIOD

 REUSING DRNS FROM LAST STRESS PERIOD

 REUSING RCHS FROM LAST STRESS PERIOD


  VOLUME BUDGET FOR ENTIRE MODEL AT END OF TIME STEP    1, STRESS PERIOD  18
  ---------------------------------------------------------------------------------------------------

     CUMULATIVE VOLUME      L**3       RATES FOR THIS TIME STEP      L**3/T          PACKAGE NAME    
     ------------------                 ------------------------                     ----------------

           IN:                                      IN:
           ---                                      ---
              STO-SS =           0.0000                STO-SS =           0.0000     STORAGE         
              STO-SY =   516780533.5471                STO-SY =    49720800.9131     STORAGE         
                 WEL =           0.0000                   WEL =           0.0000     WEL_0           
                 DRN =           0.0000                   DRN =           0.0000     DRN_0           
                 RCH =  1055221403.1895                   RCH =    39811813.8569     RCH_0           

            TOTAL IN =  1572001936.7365              TOTAL IN =    89532614.7699

          OUT:                                     OUT:
          ----                                     ----
              STO-SS =           0.0000                STO-SS =           0.0000     STORAGE         
              STO-SY =   405447939.5924                STO-SY =     7754231.0155     STORAGE         
                 WEL =   289529643.9044                   WEL =    36934454.5899     WEL_0           
                 DRN =   877024321.4557                   DRN =    44843935.2425     DRN_0           
                 RCH =           0.0000                   RCH =           0.0000     RCH_0           

           TOTAL OUT =  1572001904.9525             TOTAL OUT =    89532620.8479

            IN - OUT =          31.7840              IN - OUT =          -6.0779

 PERCENT DISCREPANCY =           0.00     PERCENT DISCREPANCY =          -0.00




         TIME SUMMARY AT END OF TIME STEP    1 IN STRESS PERIOD   18
                          TIME STEP LENGTH =    1.00000    
                        STRESS PERIOD TIME =    1.00000    
                     TOTAL SIMULATION TIME =    18.0000    

end timestep


start timestep kper="19" kstp="1" mode="normal"


 OUTPUT CONTROL FOR STRESS PERIOD 19 IS REPEATED USING SETTINGS FROM A PREVIOUS STRESS PERIOD.


 STRESS PERIOD 19 IS TRANSIENT


 REUSING WELS FROM LAST STRESS PERIOD

 REUSING DRNS FROM LAST STRESS PERIOD

 REUSING RCHS FROM LAST STRESS PERIOD


  VOLUME BUDGET FOR ENTIRE MODEL AT END OF TIME STEP    1, STRESS PERIOD  19
  ---------------------------------------------------------------------------------------------------

     CUMULATIVE VOLUME      L**3       RATES FOR THIS TIME STEP      L**3/T          PACKAGE NAME    
     ------------------                 ------------------------                     ----------------

           IN:                                      IN:
           ---                                      ---
              STO-SS =           0.0000                STO-SS =           0.0000     STORAGE         
              STO-SY =   562128384.1764                STO-SY =    45347850.6293     STORAGE         
                 WEL =           0.0000                   WEL =           0.0000     WEL_0           
                 DRN =           0.0000                   DRN =           0.0000     DRN_0           
                 RCH =  1083604422.9246                   RCH =    28383019.7351     RCH_0           

            TOTAL IN =  1645732807.1009              TOTAL IN =    73730870.3644

          OUT:                                     OUT:
          ----                                     ----
              STO-SS =           0.0000                STO-SS =           0.0000     STORAGE         
              STO-SY =   409515679.1622                STO-SY =     4067739.5699     STORAGE         
                 WEL =   320140585.6093                   WEL =    30610941.7049     WEL_0           
                 DRN =   916076485.0626                   DRN =    39052163.6069     DRN_0           
                 RCH =           0.0000                   RCH =           0.0000     RCH_0           

           TOTAL OUT =  1645732749.8342             TOTAL OUT =    73730844.8817

            IN - OUT =          57.2668              IN - OUT =          25.4827

 PERCENT DISCREPANCY =           0.00     PERCENT DISCREPANCY =           0.00




         TIME SUMMARY AT END OF TIME STEP    1 IN STRESS PERIOD   19
                          TIME STEP LENGTH =    1.00000    
                        STRESS PERIOD TIME =    1.00000    
                     TOTAL SIMULATION TIME =    19.0000    

end timestep


start timestep kper="20" kstp="1" mode="normal"


 OUTPUT CONTROL FOR STRESS PERIOD 20 IS REPEATED USING SETTINGS FROM A PREVIOUS STRESS PERIOD.


 STRESS PERIOD 20 IS TRANSIENT


 REUSING WELS FROM LAST STRESS PERIOD

 REUSING DRNS FROM LAST STRESS PERIOD

 REUSING RCHS FROM LAST STRESS PERIOD


  VOLUME BUDGET FOR ENTIRE MODEL AT END OF TIME STEP    1, STRESS PERIOD  20
  ---------------------------------------------------------------------------------------------------

     CUMULATIVE VOLUME      L**3       RATES FOR THIS TIME STEP      L**3/T          PACKAGE NAME    
     ------------------                 ------------------------                     ----------------

           IN:                                      IN:
           ---                                      ---
              STO-SS =           0.0000                STO-SS =           0.0000     STORAGE         
              STO-SY =   594592437.5695                STO-SY =    32464053.3932     STORAGE         
                 WEL =           0.0000                   WEL =           0.0000     WEL_0           
                 DRN =           0.0000                   DRN =           0.0000     DRN_0           
                 RCH =  1118352320.7625                   RCH =    34747897.8379     RCH_0           

            TOTAL IN =  1712944758.3320              TOTAL IN =    67211951.2311

          OUT:                                     OUT:
          ----                                     ----
              STO-SS =           0.0000                STO-SS =           0.0000     STORAGE         
              STO-SY =   414823689.6721                STO-SY =     5308010.5099     STORAGE         
                 WEL =   337894827.2952                   WEL =    17754241.6859     WEL_0           
                 DRN =   960226184.8873                   DRN =    44149699.8246     DRN_0           
                 RCH =           0.0000                   RCH =           0.0000     RCH_0           

           TOTAL OUT =  1712944701.8546             TOTAL OUT =    67211952.0204

            IN - OUT =          56.4774              IN - OUT =          -0.7894

 PERCENT DISCREPANCY =           0.00     PERCENT DISCREPANCY =          -0.00




         TIME SUMMARY AT END OF TIME STEP    1 IN STRESS PERIOD   20
                          TIME STEP LENGTH =    1.00000    
                        STRESS PERIOD TIME =    1.00000    
                     TOTAL SIMULATION TIME =    20.0000    

end timestep


start timestep kper="21" kstp="1" mode="normal"


 OUTPUT CONTROL FOR STRESS PERIOD 21 IS REPEATED USING SETTINGS FROM A PREVIOUS STRESS PERIOD.


 STRESS PERIOD 21 IS TRANSIENT


 REUSING WELS FROM LAST STRESS PERIOD

 REUSING DRNS FROM LAST STRESS PERIOD

 REUSING RCHS FROM LAST STRESS PERIOD


  VOLUME BUDGET FOR ENTIRE MODEL AT END OF TIME STEP    1, STRESS PERIOD  21
  ---------------------------------------------------------------------------------------------------

     CUMULATIVE VOLUME      L**3       RATES FOR THIS TIME STEP      L**3/T          PACKAGE NAME    
     ------------------                 ------------------------                     ----------------

           IN:                                      IN:
           ---                                      ---
              STO-SS =           0.0000                STO-SS =           0.0000     STORAGE         
              STO-SY =   623977938.8741                STO-SY =    29385501.3046     STORAGE         
                 WEL =           0.0000                   WEL =           0.0000     WEL_0           
                 DRN =           0.0000                   DRN =           0.0000     DRN_0           
                 RCH =  1135572045.6679                   RCH =    17219724.9054     RCH_0           

            TOTAL IN =  1759549984.5420              TOTAL IN =    46605226.2100

          OUT:                                     OUT:
          ----                                     ----
              STO-SS =           0.0000                STO-SS =           0.0000     STORAGE         
              STO-SY =   417449439.4984                STO-SY =     2625749.8262     STORAGE         
                 WEL =   344670060.3296                   WEL =     6775233.0344     WEL_0           
                 DRN =   997430424.1685                   DRN =    37204239.2812     DRN_0           
                 RCH =           0.0000                   RCH =           0.0000     RCH_0           

           TOTAL OUT =  1759549923.9964             TOTAL OUT =    46605222.1418

            IN - OUT =          60.5456              IN - OUT =           4.0682

 PERCENT DISCREPANCY =           0.00     PERCENT DISCREPANCY =           0.00




         TIME SUMMARY AT END OF TIME STEP    1 IN STRESS PERIOD   21
                          TIME STEP LENGTH =    1.00000    
                        STRESS PERIOD TIME =    1.00000    
                     TOTAL SIMULATION TIME =    21.0000    

end timestep


start timestep kper="22" kstp="1" mode="normal"


 OUTPUT CONTROL FOR STRESS PERIOD 22 IS REPEATED USING SETTINGS FROM A PREVIOUS STRESS PERIOD.


 STRESS PERIOD 22 IS TRANSIENT


 REUSING WELS FROM LAST STRESS PERIOD

 REUSING DRNS FROM LAST STRESS PERIOD

 REUSING RCHS FROM LAST STRESS PERIOD


  VOLUME BUDGET FOR ENTIRE MODEL AT END OF TIME STEP    1, STRESS PERIOD  22
  ---------------------------------------------------------------------------------------------------

     CUMULATIVE VOLUME      L**3       RATES FOR THIS TIME STEP      L**3/T          PACKAGE NAME    
     ------------------                 ------------------------                     ----------------

           IN:                                      IN:
           ---                                      ---
              STO-SS =           0.0000                STO-SS =           0.0000     STORAGE         
              STO-SY =   652285685.8075                STO-SY =    28307746.9334     STORAGE         
                 WEL =           0.0000                   WEL =           0.0000     WEL_0           
                 DRN =           0.0000                   DRN =           0.0000     DRN_0           
                 RCH =  1179174581.9119                   RCH =    43602536.2440     RCH_0           

            TOTAL IN =  1831460267.7195              TOTAL IN =    71910283.1774

          OUT:                                     OUT:
          ----                                     ----
              STO-SS =           0.0000                STO-SS =           0.0000     STORAGE         
              STO-SY =   424826627.7511                STO-SY =     7377188.2528     STORAGE         
                 WEL =   364764024.5218                   WEL =    20093964.1922     WEL_0           
                 DRN =  1041869556.8800                   DRN =    44439132.7115     DRN_0           
                 RCH =           0.0000                   RCH =           0.0000     RCH_0           

           TOTAL OUT =  1831460209.1529             TOTAL OUT =    71910285.1564

            IN - OUT =          58.5666              IN - OUT =          -1.9790

 PERCENT DISCREPANCY =           0.00     PERCENT DISCREPANCY =          -0.00




         TIME SUMMARY AT END OF TIME STEP    1 IN STRESS PERIOD   22
                          TIME STEP LENGTH =    1.00000    
                        STRESS PERIOD TIME =    1.00000    
                     TOTAL SIMULATION TIME =    22.0000    

end timestep


start timestep kper="23" kstp="1" mode="normal"


 OUTPUT CONTROL FOR STRESS PERIOD 23 IS REPEATED USING SETTINGS FROM A PREVIOUS STRESS PERIOD.


 STRESS PERIOD 23 IS TRANSIENT


 REUSING WELS FROM LAST STRESS PERIOD

 REUSING DRNS FROM LAST STRESS PERIOD

 REUSING RCHS FROM LAST STRESS PERIOD


  VOLUME BUDGET FOR ENTIRE MODEL AT END OF TIME STEP    1, STRESS PERIOD  23
  ---------------------------------------------------------------------------------------------------

     CUMULATIVE VOLUME      L**3       RATES FOR THIS TIME STEP      L**3/T          PACKAGE NAME    
     ------------------                 ------------------------                     ----------------

           IN:                                      IN:
           ---                                      ---
              STO-SS =           0.0000                STO-SS =           0.0000     STORAGE         
              STO-SY =   697608676.3456                STO-SY =    45322990.5380     STORAGE         
                 WEL =           0.0000                   WEL =           0.0000     WEL_0           
                 DRN =           0.0000                   DRN =           0.0000     DRN_0           
                 RCH =  1204929307.8709                   RCH =    25754725.9589     RCH_0           

            TOTAL IN =  1902537984.2164              TOTAL IN =    71077716.4969

          OUT:                                     OUT:
          ----                                     ----
              STO-SS =           0.0000                STO-SS =           0.0000     STORAGE         
              STO-SY =   428818548.1354                STO-SY =     3991920.3843     STORAGE         
                 WEL =   395190531.3490                   WEL =    30426506.8272     WEL_0           
                 DRN =  1078529025.3367                   DRN =    36659468.4567     DRN_0           
                 RCH =           0.0000                   RCH =           0.0000     RCH_0           

           TOTAL OUT =  1902538104.8210             TOTAL OUT =    71077895.6682

            IN - OUT =        -120.6046              IN - OUT =        -179.1712

 PERCENT DISCREPANCY =          -0.00     PERCENT DISCREPANCY =          -0.00




         TIME SUMMARY AT END OF TIME STEP    1 IN STRESS PERIOD   23
                          TIME STEP LENGTH =    1.00000    
                        STRESS PERIOD TIME =    1.00000    
                     TOTAL SIMULATION TIME =    23.0000    

end timestep


start timestep kper="24" kstp="1" mode="normal"


 OUTPUT CONTROL FOR STRESS PERIOD 24 IS REPEATED USING SETTINGS FROM A PREVIOUS STRESS PERIOD.


 STRESS PERIOD 24 IS TRANSIENT


 REUSING WELS FROM LAST STRESS PERIOD

 REUSING DRNS FROM LAST STRESS PERIOD

 REUSING RCHS FROM LAST STRESS PERIOD


  VOLUME BUDGET FOR ENTIRE MODEL AT END OF TIME STEP    1, STRESS PERIOD  24
  ---------------------------------------------------------------------------------------------------

     CUMULATIVE VOLUME      L**3       RATES FOR THIS TIME STEP      L**3/T          PACKAGE NAME    
     ------------------                 ------------------------                     ----------------

           IN:                                      IN:
           ---                                      ---
              STO-SS =           0.0000                STO-SS =           0.0000     STORAGE         
              STO-SY =   738849495.5444                STO-SY =    41240819.1989     STORAGE         
                 WEL =           0.0000                   WEL =           0.0000     WEL_0           
                 DRN =           0.0000                   DRN =           0.0000     DRN_0           
                 RCH =  1240474163.9959                   RCH =    35544856.1250     RCH_0           

            TOTAL IN =  1979323659.5403              TOTAL IN =    76785675.3239

          OUT:                                     OUT:
          ----                                     ----
              STO-SS =           0.0000                STO-SS =           0.0000     STORAGE         
              STO-SY =   433878956.6637                STO-SY =     5060408.5283     STORAGE         
                 WEL =   423241445.2582                   WEL =    28050913.9092     WEL_0           
                 DRN =  1122203338.0917                   DRN =    43674312.7550     DRN_0           
                 RCH =           0.0000                   RCH =           0.0000     RCH_0           

           TOTAL OUT =  1979323740.0136             TOTAL OUT =    76785635.1926

            IN - OUT =         -80.4733              IN - OUT =          40.1313

 PERCENT DISCREPANCY =          -0.00     PERCENT DISCREPANCY =           0.00




         TIME SUMMARY AT END OF TIME STEP    1 IN STRESS PERIOD   24
                          TIME STEP LENGTH =    1.00000    
                        STRESS PERIOD TIME =    1.00000    
                     TOTAL SIMULATION TIME =    24.0000    

end timestep


start timestep kper="25" kstp="1" mode="normal"


 OUTPUT CONTROL FOR STRESS PERIOD 25 IS REPEATED USING SETTINGS FROM A PREVIOUS STRESS PERIOD.


 STRESS PERIOD 25 IS TRANSIENT


 REUSING WELS FROM LAST STRESS PERIOD

 REUSING DRNS FROM LAST STRESS PERIOD

 REUSING RCHS FROM LAST STRESS PERIOD


  VOLUME BUDGET FOR ENTIRE MODEL AT END OF TIME STEP    1, STRESS PERIOD  25
  ---------------------------------------------------------------------------------------------------

     CUMULATIVE VOLUME      L**3       RATES FOR THIS TIME STEP      L**3/T          PACKAGE NAME    
     ------------------                 ------------------------                     ----------------

           IN:                                      IN:
           ---                                      ---
              STO-SS =           0.0000                STO-SS =           0.0000     STORAGE         
              STO-SY =   765209144.1432                STO-SY =    26359648.5988     STORAGE         
                 WEL =           0.0000                   WEL =           0.0000     WEL_0           
                 DRN =           0.0000                   DRN =           0.0000     DRN_0           
                 RCH =  1255141661.5792                   RCH =    14667497.5833     RCH_0           

            TOTAL IN =  2020350805.7224              TOTAL IN =    41027146.1820

          OUT:                                     OUT:
          ----                                     ----
              STO-SS =           0.0000                STO-SS =           0.0000     STORAGE         
              STO-SY =   436876683.4712                STO-SY =     2997726.8074     STORAGE         
                 WEL =   425665482.9694                   WEL =     2424037.7112     WEL_0           
                 DRN =  1157808711.4292                   DRN =    35605373.3375     DRN_0           
                 RCH =           0.0000                   RCH =           0.0000     RCH_0           

           TOTAL OUT =  2020350877.8697             TOTAL OUT =    41027137.8561

            IN - OUT =         -72.1474              IN - OUT =           8.3259

 PERCENT DISCREPANCY =          -0.00     PERCENT DISCREPANCY =           0.00




         TIME SUMMARY AT END OF TIME STEP    1 IN STRESS PERIOD   25
                          TIME STEP LENGTH =    1.00000    
                        STRESS PERIOD TIME =    1.00000    
                     TOTAL SIMULATION TIME =    25.0000    

end timestep


start timestep kper="26" kstp="1" mode="normal"


 OUTPUT CONTROL FOR STRESS PERIOD 26 IS REPEATED USING SETTINGS FROM A PREVIOUS STRESS PERIOD.


 STRESS PERIOD 26 IS TRANSIENT


 REUSING WELS FROM LAST STRESS PERIOD

 REUSING DRNS FROM LAST STRESS PERIOD

 REUSING RCHS FROM LAST STRESS PERIOD


  VOLUME BUDGET FOR ENTIRE MODEL AT END OF TIME STEP    1, STRESS PERIOD  26
  ---------------------------------------------------------------------------------------------------

     CUMULATIVE VOLUME      L**3       RATES FOR THIS TIME STEP      L**3/T          PACKAGE NAME    
     ------------------                 ------------------------                     ----------------

           IN:                                      IN:
           ---                                      ---
              STO-SS =           0.0000                STO-SS =           0.0000     STORAGE         
              STO-SY =   787408877.4521                STO-SY =    22199733.3090     STORAGE         
                 WEL =           0.0000                   WEL =           0.0000     WEL_0           
                 DRN =           0.0000                   DRN =           0.0000     DRN_0           
                 RCH =  1278196827.1910                   RCH =    23055165.6119     RCH_0           

            TOTAL IN =  2065605704.6432              TOTAL IN =    45254898.9208

          OUT:                                     OUT:
          ----                                     ----
              STO-SS =           0.0000                STO-SS =           0.0000     STORAGE         
              STO-SY =   440623702.5102                STO-SY =     3747019.0391     STORAGE         
                 WEL =   428570778.6392                   WEL =     2905295.6698     WEL_0           
                 DRN =  1196411295.4931                   DRN =    38602584.0639     DRN_0           
                 RCH =           0.0000                   RCH =           0.0000     RCH_0           

           TOTAL OUT =  2065605776.6425             TOTAL OUT =    45254898.7728

            IN - OUT =         -71.9993              IN - OUT =           0.1481

 PERCENT DISCREPANCY =          -0.00     PERCENT DISCREPANCY =           0.00




         TIME SUMMARY AT END OF TIME STEP    1 IN STRESS PERIOD   26
                          TIME STEP LENGTH =    1.00000    
                        STRESS PERIOD TIME =    1.00000    
                     TOTAL SIMULATION TIME =    26.0000    

end timestep


start timestep kper="27" kstp="1" mode="normal"


 OUTPUT CONTROL FOR STRESS PERIOD 27 IS REPEATED USING SETTINGS FROM A PREVIOUS STRESS PERIOD.


 STRESS PERIOD 27 IS TRANSIENT


 REUSING WELS FROM LAST STRESS PERIOD

 REUSING DRNS FROM LAST STRESS PERIOD

 REUSING RCHS FROM LAST STRESS PERIOD


  VOLUME BUDGET FOR ENTIRE MODEL AT END OF TIME STEP    1, STRESS PERIOD  27
  ---------------------------------------------------------------------------------------------------

     CUMULATIVE VOLUME      L**3       RATES FOR THIS TIME STEP      L**3/T          PACKAGE NAME    
     ------------------                 ------------------------                     ----------------

           IN:                                      IN:
           ---                                      ---
              STO-SS =           0.0000                STO-SS =           0.0000     STORAGE         
              STO-SY =   821403204.6133                STO-SY =    33994327.1612     STORAGE         
                 WEL =           0.0000                   WEL =           0.0000     WEL_0           
                 DRN =           0.0000                   DRN =           0.0000     DRN_0           
                 RCH =  1322882049.1930                   RCH =    44685222.0019     RCH_0           

            TOTAL IN =  2144285253.8063              TOTAL IN =    78679549.1631

          OUT:                                     OUT:
          ----                                     ----
              STO-SS =           0.0000                STO-SS =           0.0000     STORAGE         
              STO-SY =   448249629.2927                STO-SY =     7625926.7825     STORAGE         
                 WEL =   460608610.2423                   WEL =    32037831.6031     WEL_0           
                 DRN =  1235427071.7721                   DRN =    39015776.2791     DRN_0           
                 RCH =           0.0000                   RCH =           0.0000     RCH_0           

           TOTAL OUT =  2144285311.3071             TOTAL OUT =    78679534.6647

            IN - OUT =         -57.5008              IN - OUT =          14.4984

 PERCENT DISCREPANCY =          -0.00     PERCENT DISCREPANCY =           0.00




         TIME SUMMARY AT END OF TIME STEP    1 IN STRESS PERIOD   27
                          TIME STEP LENGTH =    1.00000    
                        STRESS PERIOD TIME =    1.00000    
                     TOTAL SIMULATION TIME =    27.0000    

end timestep


start timestep kper="28" kstp="1" mode="normal"


 OUTPUT CONTROL FOR STRESS PERIOD 28 IS REPEATED USING SETTINGS FROM A PREVIOUS STRESS PERIOD.


 STRESS PERIOD 28 IS TRANSIENT


 REUSING WELS FROM LAST STRESS PERIOD

 REUSING DRNS FROM LAST STRESS PERIOD

 REUSING RCHS FROM LAST STRESS PERIOD


  VOLUME BUDGET FOR ENTIRE MODEL AT END OF TIME STEP    1, STRESS PERIOD  28
  ---------------------------------------------------------------------------------------------------

     CUMULATIVE VOLUME      L**3       RATES FOR THIS TIME STEP      L**3/T          PACKAGE NAME    
     ------------------                 ------------------------                     ----------------

           IN:                                      IN:
           ---                                      ---
              STO-SS =           0.0000                STO-SS =           0.0000     STORAGE         
              STO-SY =   838004826.7030                STO-SY =    16601622.0897     STORAGE         
                 WEL =           0.0000                   WEL =           0.0000     WEL_0           
                 DRN =           0.0000                   DRN =           0.0000     DRN_0           
                 RCH =  1360612852.4544                   RCH =    37730803.2615     RCH_0           

            TOTAL IN =  2198617679.1574              TOTAL IN =    54332425.3511

          OUT:                                     OUT:
          ----                                     ----
              STO-SS =           0.0000                STO-SS =           0.0000     STORAGE         
              STO-SY =   457627404.8633                STO-SY =     9377775.5706     STORAGE         
                 WEL =   465124203.0964                   WEL =     4515592.8542     WEL_0           
                 DRN =  1275866133.5392                   DRN =    40439061.7671     DRN_0           
                 RCH =           0.0000                   RCH =           0.0000     RCH_0           

           TOTAL OUT =  2198617741.4990             TOTAL OUT =    54332430.1918

            IN - OUT =         -62.3415              IN - OUT =          -4.8407

 PERCENT DISCREPANCY =          -0.00     PERCENT DISCREPANCY =          -0.00




         TIME SUMMARY AT END OF TIME STEP    1 IN STRESS PERIOD   28
                          TIME STEP LENGTH =    1.00000    
                        STRESS PERIOD TIME =    1.00000    
                     TOTAL SIMULATION TIME =    28.0000    

end timestep


start timestep kper="29" kstp="1" mode="normal"


 OUTPUT CONTROL FOR STRESS PERIOD 29 IS REPEATED USING SETTINGS FROM A PREVIOUS STRESS PERIOD.


 STRESS PERIOD 29 IS TRANSIENT


 REUSING WELS FROM LAST STRESS PERIOD

 REUSING DRNS FROM LAST STRESS PERIOD

 REUSING RCHS FROM LAST STRESS PERIOD


  VOLUME BUDGET FOR ENTIRE MODEL AT END OF TIME STEP    1, STRESS PERIOD  29
  ---------------------------------------------------------------------------------------------------

     CUMULATIVE VOLUME      L**3       RATES FOR THIS TIME STEP      L**3/T          PACKAGE NAME    
     ------------------                 ------------------------                     ----------------

           IN:                                      IN:
           ---                                      ---
              STO-SS =           0.0000                STO-SS =           0.0000     STORAGE         
              STO-SY =   867338933.0514                STO-SY =    29334106.3484     STORAGE         
                 WEL =           0.0000                   WEL =           0.0000     WEL_0           
                 DRN =           0.0000                   DRN =           0.0000     DRN_0           
                 RCH =  1382305936.0780                   RCH =    21693083.6236     RCH_0           

            TOTAL IN =  2249644869.1295              TOTAL IN =    51027189.9720

          OUT:                                     OUT:
          ----                                     ----
              STO-SS =           0.0000                STO-SS =           0.0000     STORAGE         
              STO-SY =   460978396.2010                STO-SY =     3350991.3377     STORAGE         
                 WEL =   476468661.2459                   WEL =    11344458.1495     WEL_0           
                 DRN =  1312197875.8077                   DRN =    36331742.2685     DRN_0           
                 RCH =           0.0000                   RCH =           0.0000     RCH_0           

           TOTAL OUT =  2249644933.2546             TOTAL OUT =    51027191.7557

            IN - OUT =         -64.1252              IN - OUT =          -1.7836

 PERCENT DISCREPANCY =          -0.00     PERCENT DISCREPANCY =          -0.00




         TIME SUMMARY AT END OF TIME STEP    1 IN STRESS PERIOD   29
                          TIME STEP LENGTH =    1.00000    
                        STRESS PERIOD TIME =    1.00000    
                     TOTAL SIMULATION TIME =    29.0000    

end timestep


start timestep kper="30" kstp="1" mode="normal"


 OUTPUT CONTROL FOR STRESS PERIOD 30 IS REPEATED USING SETTINGS FROM A PREVIOUS STRESS PERIOD.


 STRESS PERIOD 30 IS TRANSIENT


 REUSING WELS FROM LAST STRESS PERIOD

 REUSING DRNS FROM LAST STRESS PERIOD

 REUSING RCHS FROM LAST STRESS PERIOD


  VOLUME BUDGET FOR ENTIRE MODEL AT END OF TIME STEP    1, STRESS PERIOD  30
  ---------------------------------------------------------------------------------------------------

     CUMULATIVE VOLUME      L**3       RATES FOR THIS TIME STEP      L**3/T          PACKAGE NAME    
     ------------------                 ------------------------                     ----------------

           IN:                                      IN:
           ---                                      ---
              STO-SS =           0.0000                STO-SS =           0.0000     STORAGE         
              STO-SY =   893638553.5405                STO-SY =    26299620.4891     STORAGE         
                 WEL =           0.0000                   WEL =           0.0000     WEL_0           
                 DRN =           0.0000                   DRN =           0.0000     DRN_0           
                 RCH =  1398866422.7391                   RCH =    16560486.6610     RCH_0           

            TOTAL IN =  2292504976.2796              TOTAL IN =    42860107.1501

          OUT:                                     OUT:
          ----                                     ----
              STO-SS =           0.0000                STO-SS =           0.0000     STORAGE         
              STO-SY =   463520234.6763                STO-SY =     2541838.4754     STORAGE         
                 WEL =   480560125.6221                   WEL =     4091464.3762     WEL_0           
                 DRN =  1348424674.4642                   DRN =    36226798.6565     DRN_0           
                 RCH =           0.0000                   RCH =           0.0000     RCH_0           

           TOTAL OUT =  2292505034.7626             TOTAL OUT =    42860101.5080

            IN - OUT =         -58.4831              IN - OUT =           5.6421

 PERCENT DISCREPANCY =          -0.00     PERCENT DISCREPANCY =           0.00




         TIME SUMMARY AT END OF TIME STEP    1 IN STRESS PERIOD   30
                          TIME STEP LENGTH =    1.00000    
                        STRESS PERIOD TIME =    1.00000    
                     TOTAL SIMULATION TIME =    30.0000    

end timestep


start timestep kper="31" kstp="1" mode="normal"


 OUTPUT CONTROL FOR STRESS PERIOD 31 IS REPEATED USING SETTINGS FROM A PREVIOUS STRESS PERIOD.


 STRESS PERIOD 31 IS TRANSIENT


 REUSING WELS FROM LAST STRESS PERIOD

 REUSING DRNS FROM LAST STRESS PERIOD

 REUSING RCHS FROM LAST STRESS PERIOD


  VOLUME BUDGET FOR ENTIRE MODEL AT END OF TIME STEP    1, STRESS PERIOD  31
  ---------------------------------------------------------------------------------------------------

     CUMULATIVE VOLUME      L**3       RATES FOR THIS TIME STEP      L**3/T          PACKAGE NAME    
     ------------------                 ------------------------                     ----------------

           IN:                                      IN:
           ---                                      ---
              STO-SS =           0.0000                STO-SS =           0.0000     STORAGE         
              STO-SY =   947047385.5880                STO-SY =    53408832.0475     STORAGE         
                 WEL =           0.0000                   WEL =           0.0000     WEL_0           
                 DRN =           0.0000                   DRN =           0.0000     DRN_0           
                 RCH =  1432569214.2250                   RCH =    33702791.4860     RCH_0           

            TOTAL IN =  2379616599.8130              TOTAL IN =    87111623.5335

          OUT:                                     OUT:
          ----                                     ----
              STO-SS =           0.0000                STO-SS =           0.0000     STORAGE         
              STO-SY =   468411633.1926                STO-SY =     4891398.5162     STORAGE         
                 WEL =   530052477.9114                   WEL =    49492352.2893     WEL_0           
                 DRN =  1381152548.1269                   DRN =    32727873.6627     DRN_0           
                 RCH =           0.0000                   RCH =           0.0000     RCH_0           

           TOTAL OUT =  2379616659.2309             TOTAL OUT =    87111624.4682

            IN - OUT =         -59.4179              IN - OUT =          -0.9348

 PERCENT DISCREPANCY =          -0.00     PERCENT DISCREPANCY =          -0.00




         TIME SUMMARY AT END OF TIME STEP    1 IN STRESS PERIOD   31
                          TIME STEP LENGTH =    1.00000    
                        STRESS PERIOD TIME =    1.00000    
                     TOTAL SIMULATION TIME =    31.0000    

end timestep


start timestep kper="32" kstp="1" mode="normal"


 OUTPUT CONTROL FOR STRESS PERIOD 32 IS REPEATED USING SETTINGS FROM A PREVIOUS STRESS PERIOD.


 STRESS PERIOD 32 IS TRANSIENT


 REUSING WELS FROM LAST STRESS PERIOD

 REUSING DRNS FROM LAST STRESS PERIOD

 REUSING RCHS FROM LAST STRESS PERIOD


  VOLUME BUDGET FOR ENTIRE MODEL AT END OF TIME STEP    1, STRESS PERIOD  32
  ---------------------------------------------------------------------------------------------------

     CUMULATIVE VOLUME      L**3       RATES FOR THIS TIME STEP      L**3/T          PACKAGE NAME    
     ------------------                 ------------------------                     ----------------

           IN:                                      IN:
           ---                                      ---
              STO-SS =           0.0000                STO-SS =           0.0000     STORAGE         
              STO-SY =   982371343.5181                STO-SY =    35323957.9301     STORAGE         
                 WEL =           0.0000                   WEL =           0.0000     WEL_0           
                 DRN =           0.0000                   DRN =           0.0000     DRN_0           
                 RCH =  1463275285.2617                   RCH =    30706071.0367     RCH_0           

            TOTAL IN =  2445646628.7798              TOTAL IN =    66030028.9668

          OUT:                                     OUT:
          ----                                     ----
              STO-SS =           0.0000                STO-SS =           0.0000     STORAGE         
              STO-SY =   472311267.4733                STO-SY =     3899634.2807     STORAGE         
                 WEL =   557054827.4301                   WEL =    27002349.5187     WEL_0           
                 DRN =  1416280580.9247                   DRN =    35128032.7978     DRN_0           
                 RCH =           0.0000                   RCH =           0.0000     RCH_0           

           TOTAL OUT =  2445646675.8281             TOTAL OUT =    66030016.5972

            IN - OUT =         -47.0482              IN - OUT =          12.3696

 PERCENT DISCREPANCY =          -0.00     PERCENT DISCREPANCY =           0.00




         TIME SUMMARY AT END OF TIME STEP    1 IN STRESS PERIOD   32
                          TIME STEP LENGTH =    1.00000    
                        STRESS PERIOD TIME =    1.00000    
                     TOTAL SIMULATION TIME =    32.0000    

end timestep


start timestep kper="33" kstp="1" mode="normal"


 OUTPUT CONTROL FOR STRESS PERIOD 33 IS REPEATED USING SETTINGS FROM A PREVIOUS STRESS PERIOD.


 STRESS PERIOD 33 IS TRANSIENT


 REUSING WELS FROM LAST STRESS PERIOD

 REUSING DRNS FROM LAST STRESS PERIOD

 REUSING RCHS FROM LAST STRESS PERIOD


  VOLUME BUDGET FOR ENTIRE MODEL AT END OF TIME STEP    1, STRESS PERIOD  33
  ---------------------------------------------------------------------------------------------------

     CUMULATIVE VOLUME      L**3       RATES FOR THIS TIME STEP      L**3/T          PACKAGE NAME    
     ------------------                 ------------------------                     ----------------

           IN:                                      IN:
           ---                                      ---
              STO-SS =           0.0000                STO-SS =           0.0000     STORAGE         
              STO-SY =  1005908967.0048                STO-SY =    23537623.4868     STORAGE         
                 WEL =           0.0000                   WEL =           0.0000     WEL_0           
                 DRN =           0.0000                   DRN =           0.0000     DRN_0           
                 RCH =  1491323572.3774                   RCH =    28048287.1157     RCH_0           

            TOTAL IN =  2497232539.3823              TOTAL IN =    51585910.6025

          OUT:                                     OUT:
          ----                                     ----
              STO-SS =           0.0000                STO-SS =           0.0000     STORAGE         
              STO-SY =   476624739.6817                STO-SY =     4313472.2084     STORAGE         
                 WEL =   571308233.4856                   WEL =    14253406.0555     WEL_0           
                 DRN =  1449299613.4092                   DRN =    33019032.4845     DRN_0           
                 RCH =           0.0000                   RCH =           0.0000     RCH_0           

           TOTAL OUT =  2497232586.5764             TOTAL OUT =    51585910.7484

            IN - OUT =         -47.1942              IN - OUT =          -0.1459

 PERCENT DISCREPANCY =          -0.00     PERCENT DISCREPANCY =          -0.00




         TIME SUMMARY AT END OF TIME STEP    1 IN STRESS PERIOD   33
                          TIME STEP LENGTH =    1.00000    
                        STRESS PERIOD TIME =    1.00000    
                     TOTAL SIMULATION TIME =    33.0000    

end timestep


start timestep kper="34" kstp="1" mode="normal"


 OUTPUT CONTROL FOR STRESS PERIOD 34 IS REPEATED USING SETTINGS FROM A PREVIOUS STRESS PERIOD.


 STRESS PERIOD 34 IS TRANSIENT


 REUSING WELS FROM LAST STRESS PERIOD

 REUSING DRNS FROM LAST STRESS PERIOD

 REUSING RCHS FROM LAST STRESS PERIOD


  VOLUME BUDGET FOR ENTIRE MODEL AT END OF TIME STEP    1, STRESS PERIOD  34
  ---------------------------------------------------------------------------------------------------

     CUMULATIVE VOLUME      L**3       RATES FOR THIS TIME STEP      L**3/T          PACKAGE NAME    
     ------------------                 ------------------------                     ----------------

           IN:                                      IN:
           ---                                      ---
              STO-SS =           0.0000                STO-SS =           0.0000     STORAGE         
              STO-SY =  1015627859.5278                STO-SY =     9718892.5230     STORAGE         
                 WEL =           0.0000                   WEL =           0.0000     WEL_0           
                 DRN =           0.0000                   DRN =           0.0000     DRN_0           
                 RCH =  1669150184.3957                   RCH =   177826612.0183     RCH_0           

            TOTAL IN =  2684778043.9235              TOTAL IN =   187545504.5413

          OUT:                                     OUT:
          ----                                     ----
              STO-SS =           0.0000                STO-SS =           0.0000     STORAGE         
              STO-SY =   573087796.6217                STO-SY =    96463056.9400     STORAGE         
                 WEL =   593335011.0023                   WEL =    22026777.5167     WEL_0           
                 DRN =  1518355289.4243                   DRN =    69055676.0152     DRN_0           
                 RCH =           0.0000                   RCH =           0.0000     RCH_0           

           TOTAL OUT =  2684778097.0483             TOTAL OUT =   187545510.4718

            IN - OUT =         -53.1247              IN - OUT =          -5.9306

 PERCENT DISCREPANCY =          -0.00     PERCENT DISCREPANCY =          -0.00




         TIME SUMMARY AT END OF TIME STEP    1 IN STRESS PERIOD   34
                          TIME STEP LENGTH =    1.00000    
                        STRESS PERIOD TIME =    1.00000    
                     TOTAL SIMULATION TIME =    34.0000    

end timestep


start timestep kper="35" kstp="1" mode="normal"


 OUTPUT CONTROL FOR STRESS PERIOD 35 IS REPEATED USING SETTINGS FROM A PREVIOUS STRESS PERIOD.


 STRESS PERIOD 35 IS TRANSIENT


 REUSING WELS FROM LAST STRESS PERIOD

 REUSING DRNS FROM LAST STRESS PERIOD

 REUSING RCHS FROM LAST STRESS PERIOD


  VOLUME BUDGET FOR ENTIRE MODEL AT END OF TIME STEP    1, STRESS PERIOD  35
  ---------------------------------------------------------------------------------------------------

     CUMULATIVE VOLUME      L**3       RATES FOR THIS TIME STEP      L**3/T          PACKAGE NAME    
     ------------------                 ------------------------                     ----------------

           IN:                                      IN:
           ---                                      ---
              STO-SS =           0.0000                STO-SS =           0.0000     STORAGE         
              STO-SY =  1027064295.0329                STO-SY =    11436435.5051     STORAGE         
                 WEL =           0.0000                   WEL =           0.0000     WEL_0           
                 DRN =           0.0000                   DRN =           0.0000     DRN_0           
                 RCH =  1730620699.6023                   RCH =    61470515.2066     RCH_0           

            TOTAL IN =  2757684994.6353              TOTAL IN =    72906950.7117

          OUT:                                     OUT:
          ----                                     ----
              STO-SS =           0.0000                STO-SS =           0.0000     STORAGE         
              STO-SY =   600401921.0104                STO-SY =    27314124.3887     STORAGE         
                 WEL =   600869664.8196                   WEL =     7534653.8173     WEL_0           
                 DRN =  1556413460.7136                   DRN =    38058171.2893     DRN_0           
                 RCH =           0.0000                   RCH =           0.0000     RCH_0           

           TOTAL OUT =  2757685046.5436             TOTAL OUT =    72906949.4953

            IN - OUT =         -51.9083              IN - OUT =           1.2164

 PERCENT DISCREPANCY =          -0.00     PERCENT DISCREPANCY =           0.00




         TIME SUMMARY AT END OF TIME STEP    1 IN STRESS PERIOD   35
                          TIME STEP LENGTH =    1.00000    
                        STRESS PERIOD TIME =    1.00000    
                     TOTAL SIMULATION TIME =    35.0000    

end timestep


start timestep kper="36" kstp="1" mode="normal"


 OUTPUT CONTROL FOR STRESS PERIOD 36 IS REPEATED USING SETTINGS FROM A PREVIOUS STRESS PERIOD.


 STRESS PERIOD 36 IS TRANSIENT


 REUSING WELS FROM LAST STRESS PERIOD

 REUSING DRNS FROM LAST STRESS PERIOD

 REUSING RCHS FROM LAST STRESS PERIOD


  VOLUME BUDGET FOR ENTIRE MODEL AT END OF TIME STEP    1, STRESS PERIOD  36
  ---------------------------------------------------------------------------------------------------

     CUMULATIVE VOLUME      L**3       RATES FOR THIS TIME STEP      L**3/T          PACKAGE NAME    
     ------------------                 ------------------------                     ----------------

           IN:                                      IN:
           ---                                      ---
              STO-SS =           0.0000                STO-SS =           0.0000     STORAGE         
              STO-SY =  1034015083.7217                STO-SY =     6950788.6888     STORAGE         
                 WEL =           0.0000                   WEL =           0.0000     WEL_0           
                 DRN =           0.0000                   DRN =           0.0000     DRN_0           
                 RCH =  1983320608.9500                   RCH =   252699909.3476     RCH_0           

            TOTAL IN =  3017335692.6717              TOTAL IN =   259650698.0364

          OUT:                                     OUT:
          ----                                     ----
              STO-SS =           0.0000                STO-SS =           0.0000     STORAGE         
              STO-SY =   757783438.6552                STO-SY =   157381517.6448     STORAGE         
                 WEL =   606783319.3841                   WEL =     5913654.5646     WEL_0           
                 DRN =  1652768979.6760                   DRN =    96355518.9624     DRN_0           
                 RCH =           0.0000                   RCH =           0.0000     RCH_0           

           TOTAL OUT =  3017335737.7154             TOTAL OUT =   259650691.1718

            IN - OUT =         -45.0437              IN - OUT =           6.8646

 PERCENT DISCREPANCY =          -0.00     PERCENT DISCREPANCY =           0.00




         TIME SUMMARY AT END OF TIME STEP    1 IN STRESS PERIOD   36
                          TIME STEP LENGTH =    1.00000    
                        STRESS PERIOD TIME =    1.00000    
                     TOTAL SIMULATION TIME =    36.0000    

end timestep


start timestep kper="37" kstp="1" mode="normal"


 OUTPUT CONTROL FOR STRESS PERIOD 37 IS REPEATED USING SETTINGS FROM A PREVIOUS STRESS PERIOD.


 STRESS PERIOD 37 IS TRANSIENT


 REUSING WELS FROM LAST STRESS PERIOD

 REUSING DRNS FROM LAST STRESS PERIOD

 REUSING RCHS FROM LAST STRESS PERIOD


  VOLUME BUDGET FOR ENTIRE MODEL AT END OF TIME STEP    1, STRESS PERIOD  37
  ---------------------------------------------------------------------------------------------------

     CUMULATIVE VOLUME      L**3       RATES FOR THIS TIME STEP      L**3/T          PACKAGE NAME    
     ------------------                 ------------------------                     ----------------

           IN:                                      IN:
           ---                                      ---
              STO-SS =           0.0000                STO-SS =           0.0000     STORAGE         
              STO-SY =  1040395337.9243                STO-SY =     6380254.2026     STORAGE         
                 WEL =           0.0000                   WEL =           0.0000     WEL_0           
                 DRN =           0.0000                   DRN =           0.0000     DRN_0           
                 RCH =  2092763200.3688                   RCH =   109442591.4188     RCH_0           

            TOTAL IN =  3133158538.2931              TOTAL IN =   115822845.6215

          OUT:                                     OUT:
          ----                                     ----
              STO-SS =           0.0000                STO-SS =           0.0000     STORAGE         
              STO-SY =   816501192.2887                STO-SY =    58717753.6334     STORAGE         
                 WEL =   612382715.5378                   WEL =     5599396.1537     WEL_0           
                 DRN =  1704274658.3976                   DRN =    51505678.7216     DRN_0           
                 RCH =           0.0000                   RCH =           0.0000     RCH_0           

           TOTAL OUT =  3133158566.2241             TOTAL OUT =   115822828.5087

            IN - OUT =         -27.9309              IN - OUT =          17.1128

 PERCENT DISCREPANCY =          -0.00     PERCENT DISCREPANCY =           0.00




         TIME SUMMARY AT END OF TIME STEP    1 IN STRESS PERIOD   37
                          TIME STEP LENGTH =    1.00000    
                        STRESS PERIOD TIME =    1.00000    
                     TOTAL SIMULATION TIME =    37.0000    

end timestep


start timestep kper="38" kstp="1" mode="normal"


 OUTPUT CONTROL FOR STRESS PERIOD 38 IS REPEATED USING SETTINGS FROM A PREVIOUS STRESS PERIOD.


 STRESS PERIOD 38 IS TRANSIENT


 REUSING WELS FROM LAST STRESS PERIOD

 REUSING DRNS FROM LAST STRESS PERIOD

 REUSING RCHS FROM LAST STRESS PERIOD


  VOLUME BUDGET FOR ENTIRE MODEL AT END OF TIME STEP    1, STRESS PERIOD  38
  ---------------------------------------------------------------------------------------------------

     CUMULATIVE VOLUME      L**3       RATES FOR THIS TIME STEP      L**3/T          PACKAGE NAME    
     ------------------                 ------------------------                     ----------------

           IN:                                      IN:
           ---                                      ---
              STO-SS =           0.0000                STO-SS =           0.0000     STORAGE         
              STO-SY =  1051807061.1336                STO-SY =    11411723.2093     STORAGE         
                 WEL =           0.0000                   WEL =           0.0000     WEL_0           
                 DRN =           0.0000                   DRN =           0.0000     DRN_0           
                 RCH =  2191105976.7496                   RCH =    98342776.3808     RCH_0           

            TOTAL IN =  3242913037.8832              TOTAL IN =   109754499.5901

          OUT:                                     OUT:
          ----                                     ----
              STO-SS =           0.0000                STO-SS =           0.0000     STORAGE         
              STO-SY =   854995485.5299                STO-SY =    38494293.2413     STORAGE         
                 WEL =   618128084.9995                   WEL =     5745369.4617     WEL_0           
                 DRN =  1769789495.8653                   DRN =    65514837.4677     DRN_0           
                 RCH =           0.0000                   RCH =           0.0000     RCH_0           

           TOTAL OUT =  3242913066.3947             TOTAL OUT =   109754500.1707

            IN - OUT =         -28.5115              IN - OUT =          -0.5806

 PERCENT DISCREPANCY =          -0.00     PERCENT DISCREPANCY =          -0.00




         TIME SUMMARY AT END OF TIME STEP    1 IN STRESS PERIOD   38
                          TIME STEP LENGTH =    1.00000    
                        STRESS PERIOD TIME =    1.00000    
                     TOTAL SIMULATION TIME =    38.0000    

end timestep


start timestep kper="39" kstp="1" mode="normal"


 OUTPUT CONTROL FOR STRESS PERIOD 39 IS REPEATED USING SETTINGS FROM A PREVIOUS STRESS PERIOD.


 STRESS PERIOD 39 IS TRANSIENT


 REUSING WELS FROM LAST STRESS PERIOD

 REUSING DRNS FROM LAST STRESS PERIOD

 REUSING RCHS FROM LAST STRESS PERIOD


  VOLUME BUDGET FOR ENTIRE MODEL AT END OF TIME STEP    1, STRESS PERIOD  39
  ---------------------------------------------------------------------------------------------------

     CUMULATIVE VOLUME      L**3       RATES FOR THIS TIME STEP      L**3/T          PACKAGE NAME    
     ------------------                 ------------------------                     ----------------

           IN:                                      IN:
           ---                                      ---
              STO-SS =           0.0000                STO-SS =           0.0000     STORAGE         
              STO-SY =  1064094514.4325                STO-SY =    12287453.2989     STORAGE         
                 WEL =           0.0000                   WEL =           0.0000     WEL_0           
                 DRN =           0.0000                   DRN =           0.0000     DRN_0           
                 RCH =  2265902019.1408                   RCH =    74796042.3913     RCH_0           

            TOTAL IN =  3329996533.5734              TOTAL IN =    87083495.6902

          OUT:                                     OUT:
          ----                                     ----
              STO-SS =           0.0000                STO-SS =           0.0000     STORAGE         
              STO-SY =   883366739.8531                STO-SY =    28371254.3231     STORAGE         
                 WEL =   623666739.0859                   WEL =     5538654.0864     WEL_0           
                 DRN =  1822963075.1049                   DRN =    53173579.2396     DRN_0           
                 RCH =           0.0000                   RCH =           0.0000     RCH_0           

           TOTAL OUT =  3329996554.0439             TOTAL OUT =    87083487.6492

            IN - OUT =         -20.4706              IN - OUT =           8.0410

 PERCENT DISCREPANCY =          -0.00     PERCENT DISCREPANCY =           0.00




         TIME SUMMARY AT END OF TIME STEP    1 IN STRESS PERIOD   39
                          TIME STEP LENGTH =    1.00000    
                        STRESS PERIOD TIME =    1.00000    
                     TOTAL SIMULATION TIME =    39.0000    

end timestep


start timestep kper="40" kstp="1" mode="normal"


 OUTPUT CONTROL FOR STRESS PERIOD 40 IS REPEATED USING SETTINGS FROM A PREVIOUS STRESS PERIOD.


 STRESS PERIOD 40 IS TRANSIENT


 REUSING WELS FROM LAST STRESS PERIOD

 REUSING DRNS FROM LAST STRESS PERIOD

 REUSING RCHS FROM LAST STRESS PERIOD


  VOLUME BUDGET FOR ENTIRE MODEL AT END OF TIME STEP    1, STRESS PERIOD  40
  ---------------------------------------------------------------------------------------------------

     CUMULATIVE VOLUME      L**3       RATES FOR THIS TIME STEP      L**3/T          PACKAGE NAME    
     ------------------                 ------------------------                     ----------------

           IN:                                      IN:
           ---                                      ---
              STO-SS =           0.0000                STO-SS =           0.0000     STORAGE         
              STO-SY =  1081370561.4416                STO-SY =    17276047.0090     STORAGE         
                 WEL =           0.0000                   WEL =           0.0000     WEL_0           
                 DRN =           0.0000                   DRN =           0.0000     DRN_0           
                 RCH =  2313374255.4663                   RCH =    47472236.3254     RCH_0           

            TOTAL IN =  3394744816.9078              TOTAL IN =    64748283.3345

          OUT:                                     OUT:
          ----                                     ----
              STO-SS =           0.0000                STO-SS =           0.0000     STORAGE         
              STO-SY =   891835296.8750                STO-SY =     8468557.0220     STORAGE         
                 WEL =   630426960.8819                   WEL =     6760221.7960     WEL_0           
                 DRN =  1872482603.8244                   DRN =    49519528.7195     DRN_0           
                 RCH =           0.0000                   RCH =           0.0000     RCH_0           

           TOTAL OUT =  3394744861.5814             TOTAL OUT =    64748307.5375

            IN - OUT =         -44.6736              IN - OUT =         -24.2030

 PERCENT DISCREPANCY =          -0.00     PERCENT DISCREPANCY =          -0.00




         TIME SUMMARY AT END OF TIME STEP    1 IN STRESS PERIOD   40
                          TIME STEP LENGTH =    1.00000    
                        STRESS PERIOD TIME =    1.00000    
                     TOTAL SIMULATION TIME =    40.0000    

end timestep


start timestep kper="41" kstp="1" mode="normal"


 OUTPUT CONTROL FOR STRESS PERIOD 41 IS REPEATED USING SETTINGS FROM A PREVIOUS STRESS PERIOD.


 STRESS PERIOD 41 IS TRANSIENT


 REUSING WELS FROM LAST STRESS PERIOD

 REUSING DRNS FROM LAST STRESS PERIOD

 REUSING RCHS FROM LAST STRESS PERIOD


  VOLUME BUDGET FOR ENTIRE MODEL AT END OF TIME STEP    1, STRESS PERIOD  41
  ---------------------------------------------------------------------------------------------------

     CUMULATIVE VOLUME      L**3       RATES FOR THIS TIME STEP      L**3/T          PACKAGE NAME    
     ------------------                 ------------------------                     ----------------

           IN:                                      IN:
           ---                                      ---
              STO-SS =           0.0000                STO-SS =           0.0000     STORAGE         
              STO-SY =  1098477825.6231                STO-SY =    17107264.1815     STORAGE         
                 WEL =           0.0000                   WEL =           0.0000     WEL_0           
                 DRN =           0.0000                   DRN =           0.0000     DRN_0           
                 RCH =  2357096859.2508                   RCH =    43722603.7845     RCH_0           

            TOTAL IN =  3455574684.8738              TOTAL IN =    60829867.9660

          OUT:                                     OUT:
          ----                                     ----
              STO-SS =           0.0000                STO-SS =           0.0000     STORAGE         
              STO-SY =   901132003.1846                STO-SY =     9296706.3095     STORAGE         
                 WEL =   636908568.2969                   WEL =     6481607.4150     WEL_0           
                 DRN =  1917534157.9745                   DRN =    45051554.1501     DRN_0           
                 RCH =           0.0000                   RCH =           0.0000     RCH_0           

           TOTAL OUT =  3455574729.4560             TOTAL OUT =    60829867.8746

            IN - OUT =         -44.5822              IN - OUT =       9.1406E-02

 PERCENT DISCREPANCY =          -0.00     PERCENT DISCREPANCY =           0.00




         TIME SUMMARY AT END OF TIME STEP    1 IN STRESS PERIOD   41
                          TIME STEP LENGTH =    1.00000    
                        STRESS PERIOD TIME =    1.00000    
                     TOTAL SIMULATION TIME =    41.0000    

end timestep


start timestep kper="42" kstp="1" mode="normal"


 OUTPUT CONTROL FOR STRESS PERIOD 42 IS REPEATED USING SETTINGS FROM A PREVIOUS STRESS PERIOD.


 STRESS PERIOD 42 IS TRANSIENT


 REUSING WELS FROM LAST STRESS PERIOD

 REUSING DRNS FROM LAST STRESS PERIOD

 REUSING RCHS FROM LAST STRESS PERIOD


  VOLUME BUDGET FOR ENTIRE MODEL AT END OF TIME STEP    1, STRESS PERIOD  42
  ---------------------------------------------------------------------------------------------------

     CUMULATIVE VOLUME      L**3       RATES FOR THIS TIME STEP      L**3/T          PACKAGE NAME    
     ------------------                 ------------------------                     ----------------

           IN:                                      IN:
           ---                                      ---
              STO-SS =           0.0000                STO-SS =           0.0000     STORAGE         
              STO-SY =  1114078397.6621                STO-SY =    15600572.0391     STORAGE         
                 WEL =           0.0000                   WEL =           0.0000     WEL_0           
                 DRN =           0.0000                   DRN =           0.0000     DRN_0           
                 RCH =  2405378449.0708                   RCH =    48281589.8201     RCH_0           

            TOTAL IN =  3519456846.7330              TOTAL IN =    63882161.8591

          OUT:                                     OUT:
          ----                                     ----
              STO-SS =           0.0000                STO-SS =           0.0000     STORAGE         
              STO-SY =   909774505.9935                STO-SY =     8642502.8089     STORAGE         
                 WEL =   642827731.0890                   WEL =     5919162.7921     WEL_0           
                 DRN =  1966854655.4583                   DRN =    49320497.4838     DRN_0           
                 RCH =           0.0000                   RCH =           0.0000     RCH_0           

           TOTAL OUT =  3519456892.5408             TOTAL OUT =    63882163.0848

            IN - OUT =         -45.8078              IN - OUT =          -1.2256

 PERCENT DISCREPANCY =          -0.00     PERCENT DISCREPANCY =          -0.00




         TIME SUMMARY AT END OF TIME STEP    1 IN STRESS PERIOD   42
                          TIME STEP LENGTH =    1.00000    
                        STRESS PERIOD TIME =    1.00000    
                     TOTAL SIMULATION TIME =    42.0000    

end timestep


start timestep kper="43" kstp="1" mode="normal"


 OUTPUT CONTROL FOR STRESS PERIOD 43 IS REPEATED USING SETTINGS FROM A PREVIOUS STRESS PERIOD.


 STRESS PERIOD 43 IS TRANSIENT


 REUSING WELS FROM LAST STRESS PERIOD

 REUSING DRNS FROM LAST STRESS PERIOD

 REUSING RCHS FROM LAST STRESS PERIOD


  VOLUME BUDGET FOR ENTIRE MODEL AT END OF TIME STEP    1, STRESS PERIOD  43
  ---------------------------------------------------------------------------------------------------

     CUMULATIVE VOLUME      L**3       RATES FOR THIS TIME STEP      L**3/T          PACKAGE NAME    
     ------------------                 ------------------------                     ----------------

           IN:                                      IN:
           ---                                      ---
              STO-SS =           0.0000                STO-SS =           0.0000     STORAGE         
              STO-SY =  1117545011.2688                STO-SY =     3466613.6067     STORAGE         
                 WEL =           0.0000                   WEL =           0.0000     WEL_0           
                 DRN =           0.0000                   DRN =           0.0000     DRN_0           
                 RCH =  2573010997.7680                   RCH =   167632548.6971     RCH_0           

            TOTAL IN =  3690556009.0367              TOTAL IN =   171099162.3038

          OUT:                                     OUT:
          ----                                     ----
              STO-SS =           0.0000                STO-SS =           0.0000     STORAGE         
              STO-SY =   999879108.3123                STO-SY =    90104602.3188     STORAGE         
                 WEL =   647304045.5488                   WEL =     4476314.4598     WEL_0           
                 DRN =  2043372901.3696                   DRN =    76518245.9113     DRN_0           
                 RCH =           0.0000                   RCH =           0.0000     RCH_0           

           TOTAL OUT =  3690556055.2307             TOTAL OUT =   171099162.6900

            IN - OUT =         -46.1940              IN - OUT =          -0.3862

 PERCENT DISCREPANCY =          -0.00     PERCENT DISCREPANCY =          -0.00




         TIME SUMMARY AT END OF TIME STEP    1 IN STRESS PERIOD   43
                          TIME STEP LENGTH =    1.00000    
                        STRESS PERIOD TIME =    1.00000    
                     TOTAL SIMULATION TIME =    43.0000    

end timestep


start timestep kper="44" kstp="1" mode="normal"


 OUTPUT CONTROL FOR STRESS PERIOD 44 IS REPEATED USING SETTINGS FROM A PREVIOUS STRESS PERIOD.


 STRESS PERIOD 44 IS TRANSIENT


 REUSING WELS FROM LAST STRESS PERIOD

 REUSING DRNS FROM LAST STRESS PERIOD

 REUSING RCHS FROM LAST STRESS PERIOD


  VOLUME BUDGET FOR ENTIRE MODEL AT END OF TIME STEP    1, STRESS PERIOD  44
  ---------------------------------------------------------------------------------------------------

     CUMULATIVE VOLUME      L**3       RATES FOR THIS TIME STEP      L**3/T          PACKAGE NAME    
     ------------------                 ------------------------                     ----------------

           IN:                                      IN:
           ---                                      ---
              STO-SS =           0.0000                STO-SS =           0.0000     STORAGE         
              STO-SY =  1127887749.2946                STO-SY =    10342738.0258     STORAGE         
                 WEL =           0.0000                   WEL =           0.0000     WEL_0           
                 DRN =           0.0000                   DRN =           0.0000     DRN_0           
                 RCH =  2676002459.3067                   RCH =   102991461.5387     RCH_0           

            TOTAL IN =  3803890208.6013              TOTAL IN =   113334199.5646

          OUT:                                     OUT:
          ----                                     ----
              STO-SS =           0.0000                STO-SS =           0.0000     STORAGE         
              STO-SY =  1036084756.5494                STO-SY =    36205648.2371     STORAGE         
                 WEL =   651827249.6599                   WEL =     4523204.1110     WEL_0           
                 DRN =  2115978196.4350                   DRN =    72605295.0654     DRN_0           
                 RCH =           0.0000                   RCH =           0.0000     RCH_0           

           TOTAL OUT =  3803890202.6443             TOTAL OUT =   113334147.4135

            IN - OUT =           5.9571              IN - OUT =          52.1510

 PERCENT DISCREPANCY =           0.00     PERCENT DISCREPANCY =           0.00




         TIME SUMMARY AT END OF TIME STEP    1 IN STRESS PERIOD   44
                          TIME STEP LENGTH =    1.00000    
                        STRESS PERIOD TIME =    1.00000    
                     TOTAL SIMULATION TIME =    44.0000    

end timestep


start timestep kper="45" kstp="1" mode="normal"


 OUTPUT CONTROL FOR STRESS PERIOD 45 IS REPEATED USING SETTINGS FROM A PREVIOUS STRESS PERIOD.


 STRESS PERIOD 45 IS TRANSIENT


 REUSING WELS FROM LAST STRESS PERIOD

 REUSING DRNS FROM LAST STRESS PERIOD

 REUSING RCHS FROM LAST STRESS PERIOD


  VOLUME BUDGET FOR ENTIRE MODEL AT END OF TIME STEP    1, STRESS PERIOD  45
  ---------------------------------------------------------------------------------------------------

     CUMULATIVE VOLUME      L**3       RATES FOR THIS TIME STEP      L**3/T          PACKAGE NAME    
     ------------------                 ------------------------                     ----------------

           IN:                                      IN:
           ---                                      ---
              STO-SS =           0.0000                STO-SS =           0.0000     STORAGE         
              STO-SY =  1146393278.2564                STO-SY =    18505528.9618     STORAGE         
                 WEL =           0.0000                   WEL =           0.0000     WEL_0           
                 DRN =           0.0000                   DRN =           0.0000     DRN_0           
                 RCH =  2715269087.6031                   RCH =    39266628.2964     RCH_0           

            TOTAL IN =  3861662365.8595              TOTAL IN =    57772157.2582

          OUT:                                     OUT:
          ----                                     ----
              STO-SS =           0.0000                STO-SS =           0.0000     STORAGE         
              STO-SY =  1042330291.0801                STO-SY =     6245534.5307     STORAGE         
                 WEL =   656633920.6431                   WEL =     4806670.9832     WEL_0           
                 DRN =  2162698174.5125                   DRN =    46719978.0775     DRN_0           
                 RCH =           0.0000                   RCH =           0.0000     RCH_0           

           TOTAL OUT =  3861662386.2357             TOTAL OUT =    57772183.5915

            IN - OUT =         -20.3763              IN - OUT =         -26.3333

 PERCENT DISCREPANCY =          -0.00     PERCENT DISCREPANCY =          -0.00




         TIME SUMMARY AT END OF TIME STEP    1 IN STRESS PERIOD   45
                          TIME STEP LENGTH =    1.00000    
                        STRESS PERIOD TIME =    1.00000    
                     TOTAL SIMULATION TIME =    45.0000    

end timestep


start timestep kper="46" kstp="1" mode="normal"


 OUTPUT CONTROL FOR STRESS PERIOD 46 IS REPEATED USING SETTINGS FROM A PREVIOUS STRESS PERIOD.


 STRESS PERIOD 46 IS TRANSIENT


 REUSING WELS FROM LAST STRESS PERIOD

 REUSING DRNS FROM LAST STRESS PERIOD

 REUSING RCHS FROM LAST STRESS PERIOD


  VOLUME BUDGET FOR ENTIRE MODEL AT END OF TIME STEP    1, STRESS PERIOD  46
  ---------------------------------------------------------------------------------------------------

     CUMULATIVE VOLUME      L**3       RATES FOR THIS TIME STEP      L**3/T          PACKAGE NAME    
     ------------------                 ------------------------                     ----------------

           IN:                                      IN:
           ---                                      ---
              STO-SS =           0.0000                STO-SS =           0.0000     STORAGE         
              STO-SY =  1149629449.4093                STO-SY =     3236171.1529     STORAGE         
                 WEL =           0.0000                   WEL =           0.0000     WEL_0           
                 DRN =           0.0000                   DRN =           0.0000     DRN_0           
                 RCH =  2838840088.6505                   RCH =   123571001.0474     RCH_0           

            TOTAL IN =  3988469538.0598              TOTAL IN =   126807172.2004

          OUT:                                     OUT:
          ----                                     ----
              STO-SS =           0.0000                STO-SS =           0.0000     STORAGE         
              STO-SY =  1085582683.9198                STO-SY =    43252392.8397     STORAGE         
                 WEL =   660917003.7355                   WEL =     4283083.0924     WEL_0           
                 DRN =  2241969871.6222                   DRN =    79271697.1097     DRN_0           
                 RCH =           0.0000                   RCH =           0.0000     RCH_0           

           TOTAL OUT =  3988469559.2775             TOTAL OUT =   126807173.0418

            IN - OUT =         -21.2177              IN - OUT =          -0.8414

 PERCENT DISCREPANCY =          -0.00     PERCENT DISCREPANCY =          -0.00




         TIME SUMMARY AT END OF TIME STEP    1 IN STRESS PERIOD   46
                          TIME STEP LENGTH =    1.00000    
                        STRESS PERIOD TIME =    1.00000    
                     TOTAL SIMULATION TIME =    46.0000    

end timestep


start timestep kper="47" kstp="1" mode="normal"


 OUTPUT CONTROL FOR STRESS PERIOD 47 IS REPEATED USING SETTINGS FROM A PREVIOUS STRESS PERIOD.


 STRESS PERIOD 47 IS TRANSIENT


 REUSING WELS FROM LAST STRESS PERIOD

 REUSING DRNS FROM LAST STRESS PERIOD

 REUSING RCHS FROM LAST STRESS PERIOD


  VOLUME BUDGET FOR ENTIRE MODEL AT END OF TIME STEP    1, STRESS PERIOD  47
  ---------------------------------------------------------------------------------------------------

     CUMULATIVE VOLUME      L**3       RATES FOR THIS TIME STEP      L**3/T          PACKAGE NAME    
     ------------------                 ------------------------                     ----------------

           IN:                                      IN:
           ---                                      ---
              STO-SS =           0.0000                STO-SS =           0.0000     STORAGE         
              STO-SY =  1157693700.6860                STO-SY =     8064251.2767     STORAGE         
                 WEL =           0.0000                   WEL =           0.0000     WEL_0           
                 DRN =           0.0000                   DRN =           0.0000     DRN_0           
                 RCH =  3024223230.6774                   RCH =   185383142.0268     RCH_0           

            TOTAL IN =  4181916931.3634              TOTAL IN =   193447393.3035

          OUT:                                     OUT:
          ----                                     ----
              STO-SS =           0.0000                STO-SS =           0.0000     STORAGE         
              STO-SY =  1184221121.3839                STO-SY =    98638437.4642     STORAGE         
                 WEL =   664721739.2251                   WEL =     3804735.4896     WEL_0           
                 DRN =  2332974091.8708                   DRN =    91004220.2486     DRN_0           
                 RCH =           0.0000                   RCH =           0.0000     RCH_0           

           TOTAL OUT =  4181916952.4798             TOTAL OUT =   193447393.2023

            IN - OUT =         -21.1165              IN - OUT =           0.1012

 PERCENT DISCREPANCY =          -0.00     PERCENT DISCREPANCY =           0.00




         TIME SUMMARY AT END OF TIME STEP    1 IN STRESS PERIOD   47
                          TIME STEP LENGTH =    1.00000    
                        STRESS PERIOD TIME =    1.00000    
                     TOTAL SIMULATION TIME =    47.0000    

end timestep


start timestep kper="48" kstp="1" mode="normal"


 OUTPUT CONTROL FOR STRESS PERIOD 48 IS REPEATED USING SETTINGS FROM A PREVIOUS STRESS PERIOD.


 STRESS PERIOD 48 IS TRANSIENT


 REUSING WELS FROM LAST STRESS PERIOD

 REUSING DRNS FROM LAST STRESS PERIOD

 REUSING RCHS FROM LAST STRESS PERIOD


  VOLUME BUDGET FOR ENTIRE MODEL AT END OF TIME STEP    1, STRESS PERIOD  48
  ---------------------------------------------------------------------------------------------------

     CUMULATIVE VOLUME      L**3       RATES FOR THIS TIME STEP      L**3/T          PACKAGE NAME    
     ------------------                 ------------------------                     ----------------

           IN:                                      IN:
           ---                                      ---
              STO-SS =           0.0000                STO-SS =           0.0000     STORAGE         
              STO-SY =  1166921634.1085                STO-SY =     9227933.4225     STORAGE         
                 WEL =           0.0000                   WEL =           0.0000     WEL_0           
                 DRN =           0.0000                   DRN =           0.0000     DRN_0           
                 RCH =  3235833128.5534                   RCH =   211609897.8760     RCH_0           

            TOTAL IN =  4402754762.6619              TOTAL IN =   220837831.2985

          OUT:                                     OUT:
          ----                                     ----
              STO-SS =           0.0000                STO-SS =           0.0000     STORAGE         
              STO-SY =  1265732340.4606                STO-SY =    81511219.0767     STORAGE         
                 WEL =   668527066.1407                   WEL =     3805326.9156     WEL_0           
                 DRN =  2468495374.5017                   DRN =   135521282.6309     DRN_0           
                 RCH =           0.0000                   RCH =           0.0000     RCH_0           

           TOTAL OUT =  4402754781.1030             TOTAL OUT =   220837828.6232

            IN - OUT =         -18.4411              IN - OUT =           2.6754

 PERCENT DISCREPANCY =          -0.00     PERCENT DISCREPANCY =           0.00




         TIME SUMMARY AT END OF TIME STEP    1 IN STRESS PERIOD   48
                          TIME STEP LENGTH =    1.00000    
                        STRESS PERIOD TIME =    1.00000    
                     TOTAL SIMULATION TIME =    48.0000    

end timestep


start timestep kper="49" kstp="1" mode="normal"


 OUTPUT CONTROL FOR STRESS PERIOD 49 IS REPEATED USING SETTINGS FROM A PREVIOUS STRESS PERIOD.


 STRESS PERIOD 49 IS TRANSIENT


 REUSING WELS FROM LAST STRESS PERIOD

 REUSING DRNS FROM LAST STRESS PERIOD

 REUSING RCHS FROM LAST STRESS PERIOD


  VOLUME BUDGET FOR ENTIRE MODEL AT END OF TIME STEP    1, STRESS PERIOD  49
  ---------------------------------------------------------------------------------------------------

     CUMULATIVE VOLUME      L**3       RATES FOR THIS TIME STEP      L**3/T          PACKAGE NAME    
     ------------------                 ------------------------                     ----------------

           IN:                                      IN:
           ---                                      ---
              STO-SS =           0.0000                STO-SS =           0.0000     STORAGE         
              STO-SY =  1175929460.8693                STO-SY =     9007826.7608     STORAGE         
                 WEL =           0.0000                   WEL =           0.0000     WEL_0           
                 DRN =           0.0000                   DRN =           0.0000     DRN_0           
                 RCH =  3472265946.1827                   RCH =   236432817.6294     RCH_0           

            TOTAL IN =  4648195407.0520              TOTAL IN =   245440644.3902

          OUT:                                     OUT:
          ----                                     ----
              STO-SS =           0.0000                STO-SS =           0.0000     STORAGE         
              STO-SY =  1383798699.7784                STO-SY =   118066359.3178     STORAGE         
                 WEL =   671779393.6002                   WEL =     3252327.4595     WEL_0           
                 DRN =  2592617332.4751                   DRN =   124121957.9734     DRN_0           
                 RCH =           0.0000                   RCH =           0.0000     RCH_0           

           TOTAL OUT =  4648195425.8536             TOTAL OUT =   245440644.7506

            IN - OUT =         -18.8016              IN - OUT =          -0.3605

 PERCENT DISCREPANCY =          -0.00     PERCENT DISCREPANCY =          -0.00




         TIME SUMMARY AT END OF TIME STEP    1 IN STRESS PERIOD   49
                          TIME STEP LENGTH =    1.00000    
                        STRESS PERIOD TIME =    1.00000    
                     TOTAL SIMULATION TIME =    49.0000    

end timestep


start timestep kper="50" kstp="1" mode="normal"


 OUTPUT CONTROL FOR STRESS PERIOD 50 IS REPEATED USING SETTINGS FROM A PREVIOUS STRESS PERIOD.


 STRESS PERIOD 50 IS TRANSIENT


 REUSING WELS FROM LAST STRESS PERIOD

 REUSING DRNS FROM LAST STRESS PERIOD

 REUSING RCHS FROM LAST STRESS PERIOD


  VOLUME BUDGET FOR ENTIRE MODEL AT END OF TIME STEP    1, STRESS PERIOD  50
  ---------------------------------------------------------------------------------------------------

     CUMULATIVE VOLUME      L**3       RATES FOR THIS TIME STEP      L**3/T          PACKAGE NAME    
     ------------------                 ------------------------                     ----------------

           IN:                                      IN:
           ---                                      ---
              STO-SS =           0.0000                STO-SS =           0.0000     STORAGE         
              STO-SY =  1191015814.8430                STO-SY =    15086353.9737     STORAGE         
                 WEL =           0.0000                   WEL =           0.0000     WEL_0           
                 DRN =           0.0000                   DRN =           0.0000     DRN_0           
                 RCH =  3565997247.1199                   RCH =    93731300.9372     RCH_0           

            TOTAL IN =  4757013061.9629              TOTAL IN =   108817654.9109

          OUT:                                     OUT:
          ----                                     ----
              STO-SS =           0.0000                STO-SS =           0.0000     STORAGE         
              STO-SY =  1402604932.8714                STO-SY =    18806233.0930     STORAGE         
                 WEL =   675469435.3609                   WEL =     3690041.7607     WEL_0           
                 DRN =  2678938914.5122                   DRN =    86321582.0372     DRN_0           
                 RCH =           0.0000                   RCH =           0.0000     RCH_0           

           TOTAL OUT =  4757013282.7445             TOTAL OUT =   108817856.8909

            IN - OUT =        -220.7816              IN - OUT =        -201.9800

 PERCENT DISCREPANCY =          -0.00     PERCENT DISCREPANCY =          -0.00




         TIME SUMMARY AT END OF TIME STEP    1 IN STRESS PERIOD   50
                          TIME STEP LENGTH =    1.00000    
                        STRESS PERIOD TIME =    1.00000    
                     TOTAL SIMULATION TIME =    50.0000    

end timestep


start timestep kper="51" kstp="1" mode="normal"


 OUTPUT CONTROL FOR STRESS PERIOD 51 IS REPEATED USING SETTINGS FROM A PREVIOUS STRESS PERIOD.


 STRESS PERIOD 51 IS TRANSIENT


 REUSING WELS FROM LAST STRESS PERIOD

 REUSING DRNS FROM LAST STRESS PERIOD

 REUSING RCHS FROM LAST STRESS PERIOD


  VOLUME BUDGET FOR ENTIRE MODEL AT END OF TIME STEP    1, STRESS PERIOD  51
  ---------------------------------------------------------------------------------------------------

     CUMULATIVE VOLUME      L**3       RATES FOR THIS TIME STEP      L**3/T          PACKAGE NAME    
     ------------------                 ------------------------                     ----------------

           IN:                                      IN:
           ---                                      ---
              STO-SS =           0.0000                STO-SS =           0.0000     STORAGE         
              STO-SY =  1213961513.2084                STO-SY =    22945698.3654     STORAGE         
                 WEL =           0.0000                   WEL =           0.0000     WEL_0           
                 DRN =           0.0000                   DRN =           0.0000     DRN_0           
                 RCH =  3612301382.9017                   RCH =    46304135.7818     RCH_0           

            TOTAL IN =  4826262896.1101              TOTAL IN =    69249834.1472

          OUT:                                     OUT:
          ----                                     ----
              STO-SS =           0.0000                STO-SS =           0.0000     STORAGE         
              STO-SY =  1408913107.4366                STO-SY =     6308174.5652     STORAGE         
                 WEL =   679343423.1256                   WEL =     3873987.7647     WEL_0           
                 DRN =  2738006574.9828                   DRN =    59067660.4706     DRN_0           
                 RCH =           0.0000                   RCH =           0.0000     RCH_0           

           TOTAL OUT =  4826263105.5450             TOTAL OUT =    69249822.8005

            IN - OUT =        -209.4349              IN - OUT =          11.3467

 PERCENT DISCREPANCY =          -0.00     PERCENT DISCREPANCY =           0.00




         TIME SUMMARY AT END OF TIME STEP    1 IN STRESS PERIOD   51
                          TIME STEP LENGTH =    1.00000    
                        STRESS PERIOD TIME =    1.00000    
                     TOTAL SIMULATION TIME =    51.0000    

end timestep


start timestep kper="52" kstp="1" mode="normal"


 OUTPUT CONTROL FOR STRESS PERIOD 52 IS REPEATED USING SETTINGS FROM A PREVIOUS STRESS PERIOD.


 STRESS PERIOD 52 IS TRANSIENT


 REUSING WELS FROM LAST STRESS PERIOD

 REUSING DRNS FROM LAST STRESS PERIOD

 REUSING RCHS FROM LAST STRESS PERIOD


  VOLUME BUDGET FOR ENTIRE MODEL AT END OF TIME STEP    1, STRESS PERIOD  52
  ---------------------------------------------------------------------------------------------------

     CUMULATIVE VOLUME      L**3       RATES FOR THIS TIME STEP      L**3/T          PACKAGE NAME    
     ------------------                 ------------------------                     ----------------

           IN:                                      IN:
           ---                                      ---
              STO-SS =           0.0000                STO-SS =           0.0000     STORAGE         
              STO-SY =  1233965109.3057                STO-SY =    20003596.0973     STORAGE         
                 WEL =           0.0000                   WEL =           0.0000     WEL_0           
                 DRN =           0.0000                   DRN =           0.0000     DRN_0           
                 RCH =  3667869996.0888                   RCH =    55568613.1871     RCH_0           

            TOTAL IN =  4901835105.3945              TOTAL IN =    75572209.2844

          OUT:                                     OUT:
          ----                                     ----
              STO-SS =           0.0000                STO-SS =           0.0000     STORAGE         
              STO-SY =  1416239218.8740                STO-SY =     7326111.4374     STORAGE         
                 WEL =   683612249.3979                   WEL =     4268826.2723     WEL_0           
                 DRN =  2801983836.8584                   DRN =    63977261.8756     DRN_0           
                 RCH =           0.0000                   RCH =           0.0000     RCH_0           

           TOTAL OUT =  4901835305.1303             TOTAL OUT =    75572199.5852

            IN - OUT =        -199.7358              IN - OUT =           9.6991

 PERCENT DISCREPANCY =          -0.00     PERCENT DISCREPANCY =           0.00




         TIME SUMMARY AT END OF TIME STEP    1 IN STRESS PERIOD   52
                          TIME STEP LENGTH =    1.00000    
                        STRESS PERIOD TIME =    1.00000    
                     TOTAL SIMULATION TIME =    52.0000    

end timestep


start timestep kper="53" kstp="1" mode="normal"


 OUTPUT CONTROL FOR STRESS PERIOD 53 IS REPEATED USING SETTINGS FROM A PREVIOUS STRESS PERIOD.


 STRESS PERIOD 53 IS TRANSIENT


 REUSING WELS FROM LAST STRESS PERIOD

 REUSING DRNS FROM LAST STRESS PERIOD

 REUSING RCHS FROM LAST STRESS PERIOD


  VOLUME BUDGET FOR ENTIRE MODEL AT END OF TIME STEP    1, STRESS PERIOD  53
  ---------------------------------------------------------------------------------------------------

     CUMULATIVE VOLUME      L**3       RATES FOR THIS TIME STEP      L**3/T          PACKAGE NAME    
     ------------------                 ------------------------                     ----------------

           IN:                                      IN:
           ---                                      ---
              STO-SS =           0.0000                STO-SS =           0.0000     STORAGE         
              STO-SY =  1255241732.7317                STO-SY =    21276623.4259     STORAGE         
                 WEL =           0.0000                   WEL =           0.0000     WEL_0           
                 DRN =           0.0000                   DRN =           0.0000     DRN_0           
                 RCH =  3713440760.7821                   RCH =    45570764.6933     RCH_0           

            TOTAL IN =  4968682493.5137              TOTAL IN =    66847388.1192

          OUT:                                     OUT:
          ----                                     ----
              STO-SS =           0.0000                STO-SS =           0.0000     STORAGE         
              STO-SY =  1421235122.4028                STO-SY =     4995903.5288     STORAGE         
                 WEL =   688358762.9078                   WEL =     4746513.5100     WEL_0           
                 DRN =  2859088808.1513                   DRN =    57104971.2929     DRN_0           
                 RCH =           0.0000                   RCH =           0.0000     RCH_0           

           TOTAL OUT =  4968682693.4619             TOTAL OUT =    66847388.3316

            IN - OUT =        -199.9482              IN - OUT =          -0.2124

 PERCENT DISCREPANCY =          -0.00     PERCENT DISCREPANCY =          -0.00




         TIME SUMMARY AT END OF TIME STEP    1 IN STRESS PERIOD   53
                          TIME STEP LENGTH =    1.00000    
                        STRESS PERIOD TIME =    1.00000    
                     TOTAL SIMULATION TIME =    53.0000    

end timestep


start timestep kper="54" kstp="1" mode="normal"


 OUTPUT CONTROL FOR STRESS PERIOD 54 IS REPEATED USING SETTINGS FROM A PREVIOUS STRESS PERIOD.


 STRESS PERIOD 54 IS TRANSIENT


 REUSING WELS FROM LAST STRESS PERIOD

 REUSING DRNS FROM LAST STRESS PERIOD

 REUSING RCHS FROM LAST STRESS PERIOD


  VOLUME BUDGET FOR ENTIRE MODEL AT END OF TIME STEP    1, STRESS PERIOD  54
  ---------------------------------------------------------------------------------------------------

     CUMULATIVE VOLUME      L**3       RATES FOR THIS TIME STEP      L**3/T          PACKAGE NAME    
     ------------------                 ------------------------                     ----------------

           IN:                                      IN:
           ---                                      ---
              STO-SS =           0.0000                STO-SS =           0.0000     STORAGE         
              STO-SY =  1279161426.5065                STO-SY =    23919693.7749     STORAGE         
                 WEL =           0.0000                   WEL =           0.0000     WEL_0           
                 DRN =           0.0000                   DRN =           0.0000     DRN_0           
                 RCH =  3759195084.8582                   RCH =    45754324.0761     RCH_0           

            TOTAL IN =  5038356511.3647              TOTAL IN =    69674017.8510

          OUT:                                     OUT:
          ----                                     ----
              STO-SS =           0.0000                STO-SS =           0.0000     STORAGE         
              STO-SY =  1426601555.4332                STO-SY =     5366433.0304     STORAGE         
                 WEL =   694024806.0300                   WEL =     5666043.1222     WEL_0           
                 DRN =  2917730351.0098                   DRN =    58641542.8586     DRN_0           
                 RCH =           0.0000                   RCH =           0.0000     RCH_0           

           TOTAL OUT =  5038356712.4730             TOTAL OUT =    69674019.0111

            IN - OUT =        -201.1083              IN - OUT =          -1.1601

 PERCENT DISCREPANCY =          -0.00     PERCENT DISCREPANCY =          -0.00




         TIME SUMMARY AT END OF TIME STEP    1 IN STRESS PERIOD   54
                          TIME STEP LENGTH =    1.00000    
                        STRESS PERIOD TIME =    1.00000    
                     TOTAL SIMULATION TIME =    54.0000    

end timestep


start timestep kper="55" kstp="1" mode="normal"


 OUTPUT CONTROL FOR STRESS PERIOD 55 IS REPEATED USING SETTINGS FROM A PREVIOUS STRESS PERIOD.


 STRESS PERIOD 55 IS TRANSIENT


 REUSING WELS FROM LAST STRESS PERIOD

 REUSING DRNS FROM LAST STRESS PERIOD

 REUSING RCHS FROM LAST STRESS PERIOD


  VOLUME BUDGET FOR ENTIRE MODEL AT END OF TIME STEP    1, STRESS PERIOD  55
  ---------------------------------------------------------------------------------------------------

     CUMULATIVE VOLUME      L**3       RATES FOR THIS TIME STEP      L**3/T          PACKAGE NAME    
     ------------------                 ------------------------                     ----------------

           IN:                                      IN:
           ---                                      ---
              STO-SS =           0.0000                STO-SS =           0.0000     STORAGE         
              STO-SY =  1293920895.5377                STO-SY =    14759469.0312     STORAGE         
                 WEL =           0.0000                   WEL =           0.0000     WEL_0           
                 DRN =           0.0000                   DRN =           0.0000     DRN_0           
                 RCH =  3821178292.9692                   RCH =    61983208.1110     RCH_0           

            TOTAL IN =  5115099188.5068              TOTAL IN =    76742677.1421

          OUT:                                     OUT:
          ----                                     ----
              STO-SS =           0.0000                STO-SS =           0.0000     STORAGE         
              STO-SY =  1441013145.3876                STO-SY =    14411589.9544     STORAGE         
                 WEL =   699142196.1576                   WEL =     5117390.1276     WEL_0           
                 DRN =  2974944029.1167                   DRN =    57213678.1069     DRN_0           
                 RCH =           0.0000                   RCH =           0.0000     RCH_0           

           TOTAL OUT =  5115099370.6619             TOTAL OUT =    76742658.1890

            IN - OUT =        -182.1551              IN - OUT =          18.9532

 PERCENT DISCREPANCY =          -0.00     PERCENT DISCREPANCY =           0.00




         TIME SUMMARY AT END OF TIME STEP    1 IN STRESS PERIOD   55
                          TIME STEP LENGTH =    1.00000    
                        STRESS PERIOD TIME =    1.00000    
                     TOTAL SIMULATION TIME =    55.0000    

end timestep


start timestep kper="56" kstp="1" mode="normal"


 OUTPUT CONTROL FOR STRESS PERIOD 56 IS REPEATED USING SETTINGS FROM A PREVIOUS STRESS PERIOD.


 STRESS PERIOD 56 IS TRANSIENT


 REUSING WELS FROM LAST STRESS PERIOD

 REUSING DRNS FROM LAST STRESS PERIOD

 REUSING RCHS FROM LAST STRESS PERIOD


  VOLUME BUDGET FOR ENTIRE MODEL AT END OF TIME STEP    1, STRESS PERIOD  56
  ---------------------------------------------------------------------------------------------------

     CUMULATIVE VOLUME      L**3       RATES FOR THIS TIME STEP      L**3/T          PACKAGE NAME    
     ------------------                 ------------------------                     ----------------

           IN:                                      IN:
           ---                                      ---
              STO-SS =           0.0000                STO-SS =           0.0000     STORAGE         
              STO-SY =  1308642067.7453                STO-SY =    14721172.2076     STORAGE         
                 WEL =           0.0000                   WEL =           0.0000     WEL_0           
                 DRN =           0.0000                   DRN =           0.0000     DRN_0           
                 RCH =  3888184542.5715                   RCH =    67006249.6024     RCH_0           

            TOTAL IN =  5196826610.3168              TOTAL IN =    81727421.8100

          OUT:                                     OUT:
          ----                                     ----
              STO-SS =           0.0000                STO-SS =           0.0000     STORAGE         
              STO-SY =  1453012644.7620                STO-SY =    11999499.3744     STORAGE         
                 WEL =   704320875.1982                   WEL =     5178679.0406     WEL_0           
                 DRN =  3039493257.4385                   DRN =    64549228.3217     DRN_0           
                 RCH =           0.0000                   RCH =           0.0000     RCH_0           

           TOTAL OUT =  5196826777.3987             TOTAL OUT =    81727406.7367

            IN - OUT =        -167.0818              IN - OUT =          15.0732

 PERCENT DISCREPANCY =          -0.00     PERCENT DISCREPANCY =           0.00




         TIME SUMMARY AT END OF TIME STEP    1 IN STRESS PERIOD   56
                          TIME STEP LENGTH =    1.00000    
                        STRESS PERIOD TIME =    1.00000    
                     TOTAL SIMULATION TIME =    56.0000    

end timestep


start timestep kper="57" kstp="1" mode="normal"


 OUTPUT CONTROL FOR STRESS PERIOD 57 IS REPEATED USING SETTINGS FROM A PREVIOUS STRESS PERIOD.


 STRESS PERIOD 57 IS TRANSIENT


 REUSING WELS FROM LAST STRESS PERIOD

 REUSING DRNS FROM LAST STRESS PERIOD

 REUSING RCHS FROM LAST STRESS PERIOD


  VOLUME BUDGET FOR ENTIRE MODEL AT END OF TIME STEP    1, STRESS PERIOD  57
  ---------------------------------------------------------------------------------------------------

     CUMULATIVE VOLUME      L**3       RATES FOR THIS TIME STEP      L**3/T          PACKAGE NAME    
     ------------------                 ------------------------                     ----------------

           IN:                                      IN:
           ---                                      ---
              STO-SS =           0.0000                STO-SS =           0.0000     STORAGE         
              STO-SY =  1316961160.6868                STO-SY =     8319092.9415     STORAGE         
                 WEL =           0.0000                   WEL =           0.0000     WEL_0           
                 DRN =           0.0000                   DRN =           0.0000     DRN_0           
                 RCH =  3987614588.0451                   RCH =    99430045.4735     RCH_0           

            TOTAL IN =  5304575748.7319              TOTAL IN =   107749138.4150

          OUT:                                     OUT:
          ----                                     ----
              STO-SS =           0.0000                STO-SS =           0.0000     STORAGE         
              STO-SY =  1487691501.8060                STO-SY =    34678857.0441     STORAGE         
                 WEL =   708798092.6970                   WEL =     4477217.4988     WEL_0           
                 DRN =  3108086314.1700                   DRN =    68593056.7316     DRN_0           
                 RCH =           0.0000                   RCH =           0.0000     RCH_0           

           TOTAL OUT =  5304575908.6731             TOTAL OUT =   107749131.2744

            IN - OUT =        -159.9412              IN - OUT =           7.1406

 PERCENT DISCREPANCY =          -0.00     PERCENT DISCREPANCY =           0.00




         TIME SUMMARY AT END OF TIME STEP    1 IN STRESS PERIOD   57
                          TIME STEP LENGTH =    1.00000    
                        STRESS PERIOD TIME =    1.00000    
                     TOTAL SIMULATION TIME =    57.0000    

end timestep


start timestep kper="58" kstp="1" mode="normal"


 OUTPUT CONTROL FOR STRESS PERIOD 58 IS REPEATED USING SETTINGS FROM A PREVIOUS STRESS PERIOD.


 STRESS PERIOD 58 IS TRANSIENT


 REUSING WELS FROM LAST STRESS PERIOD

 REUSING DRNS FROM LAST STRESS PERIOD

 REUSING RCHS FROM LAST STRESS PERIOD


  VOLUME BUDGET FOR ENTIRE MODEL AT END OF TIME STEP    1, STRESS PERIOD  58
  ---------------------------------------------------------------------------------------------------

     CUMULATIVE VOLUME      L**3       RATES FOR THIS TIME STEP      L**3/T          PACKAGE NAME    
     ------------------                 ------------------------                     ----------------

           IN:                                      IN:
           ---                                      ---
              STO-SS =           0.0000                STO-SS =           0.0000     STORAGE         
              STO-SY =  1322784676.1159                STO-SY =     5823515.4291     STORAGE         
                 WEL =           0.0000                   WEL =           0.0000     WEL_0           
                 DRN =           0.0000                   DRN =           0.0000     DRN_0           
                 RCH =  4182819935.8977                   RCH =   195205347.8526     RCH_0           

            TOTAL IN =  5505604612.0136              TOTAL IN =   201028863.2818

          OUT:                                     OUT:
          ----                                     ----
              STO-SS =           0.0000                STO-SS =           0.0000     STORAGE         
              STO-SY =  1562472441.8139                STO-SY =    74780940.0079     STORAGE         
                 WEL =   712601721.5978                   WEL =     3803628.9009     WEL_0           
                 DRN =  3230530608.4944                   DRN =   122444294.3243     DRN_0           
                 RCH =           0.0000                   RCH =           0.0000     RCH_0           

           TOTAL OUT =  5505604771.9061             TOTAL OUT =   201028863.2331

            IN - OUT =        -159.8925              IN - OUT =       4.8697E-02

 PERCENT DISCREPANCY =          -0.00     PERCENT DISCREPANCY =           0.00




         TIME SUMMARY AT END OF TIME STEP    1 IN STRESS PERIOD   58
                          TIME STEP LENGTH =    1.00000    
                        STRESS PERIOD TIME =    1.00000    
                     TOTAL SIMULATION TIME =    58.0000    

end timestep


start timestep kper="59" kstp="1" mode="normal"


 OUTPUT CONTROL FOR STRESS PERIOD 59 IS REPEATED USING SETTINGS FROM A PREVIOUS STRESS PERIOD.


 STRESS PERIOD 59 IS TRANSIENT


 REUSING WELS FROM LAST STRESS PERIOD

 REUSING DRNS FROM LAST STRESS PERIOD

 REUSING RCHS FROM LAST STRESS PERIOD


  VOLUME BUDGET FOR ENTIRE MODEL AT END OF TIME STEP    1, STRESS PERIOD  59
  ---------------------------------------------------------------------------------------------------

     CUMULATIVE VOLUME      L**3       RATES FOR THIS TIME STEP      L**3/T          PACKAGE NAME    
     ------------------                 ------------------------                     ----------------

           IN:                                      IN:
           ---                                      ---
              STO-SS =           0.0000                STO-SS =           0.0000     STORAGE         
              STO-SY =  1333261675.6188                STO-SY =    10476999.5029     STORAGE         
                 WEL =           0.0000                   WEL =           0.0000     WEL_0           
                 DRN =           0.0000                   DRN =           0.0000     DRN_0           
                 RCH =  4330741239.8997                   RCH =   147921304.0019     RCH_0           

            TOTAL IN =  5664002915.5185              TOTAL IN =   158398303.5049

          OUT:                                     OUT:
          ----                                     ----
              STO-SS =           0.0000                STO-SS =           0.0000     STORAGE         
              STO-SY =  1626628647.8364                STO-SY =    64156206.0225     STORAGE         
                 WEL =   716252305.5780                   WEL =     3650583.9802     WEL_0           
                 DRN =  3321122121.9441                   DRN =    90591513.4497     DRN_0           
                 RCH =           0.0000                   RCH =           0.0000     RCH_0           

           TOTAL OUT =  5664003075.3586             TOTAL OUT =   158398303.4524

            IN - OUT =        -159.8400              IN - OUT =       5.2452E-02

 PERCENT DISCREPANCY =          -0.00     PERCENT DISCREPANCY =           0.00




         TIME SUMMARY AT END OF TIME STEP    1 IN STRESS PERIOD   59
                          TIME STEP LENGTH =    1.00000    
                        STRESS PERIOD TIME =    1.00000    
                     TOTAL SIMULATION TIME =    59.0000    

end timestep


start timestep kper="60" kstp="1" mode="normal"


 OUTPUT CONTROL FOR STRESS PERIOD 60 IS REPEATED USING SETTINGS FROM A PREVIOUS STRESS PERIOD.


 STRESS PERIOD 60 IS TRANSIENT


 REUSING WELS FROM LAST STRESS PERIOD

 REUSING DRNS FROM LAST STRESS PERIOD

 REUSING RCHS FROM LAST STRESS PERIOD


  VOLUME BUDGET FOR ENTIRE MODEL AT END OF TIME STEP    1, STRESS PERIOD  60
  ---------------------------------------------------------------------------------------------------

     CUMULATIVE VOLUME      L**3       RATES FOR THIS TIME STEP      L**3/T          PACKAGE NAME    
     ------------------                 ------------------------                     ----------------

           IN:                                      IN:
           ---                                      ---
              STO-SS =           0.0000                STO-SS =           0.0000     STORAGE         
              STO-SY =  1342427583.0789                STO-SY =     9165907.4601     STORAGE         
                 WEL =           0.0000                   WEL =           0.0000     WEL_0           
                 DRN =           0.0000                   DRN =           0.0000     DRN_0           
                 RCH =  4459537560.2242                   RCH =   128796320.3245     RCH_0           

            TOTAL IN =  5801965143.3031              TOTAL IN =   137962227.7846

          OUT:                                     OUT:
          ----                                     ----
              STO-SS =           0.0000                STO-SS =           0.0000     STORAGE         
              STO-SY =  1661108274.2992                STO-SY =    34479626.4628     STORAGE         
                 WEL =   719882849.1138                   WEL =     3630543.5358     WEL_0           
                 DRN =  3420974163.3947                   DRN =    99852041.4506     DRN_0           
                 RCH =           0.0000                   RCH =           0.0000     RCH_0           

           TOTAL OUT =  5801965286.8077             TOTAL OUT =   137962211.4492

            IN - OUT =        -143.5046              IN - OUT =          16.3354

 PERCENT DISCREPANCY =          -0.00     PERCENT DISCREPANCY =           0.00




         TIME SUMMARY AT END OF TIME STEP    1 IN STRESS PERIOD   60
                          TIME STEP LENGTH =    1.00000    
                        STRESS PERIOD TIME =    1.00000    
                     TOTAL SIMULATION TIME =    60.0000    

end timestep


start timestep kper="61" kstp="1" mode="normal"


 OUTPUT CONTROL FOR STRESS PERIOD 61 IS REPEATED USING SETTINGS FROM A PREVIOUS STRESS PERIOD.


 STRESS PERIOD 61 IS TRANSIENT


 REUSING WELS FROM LAST STRESS PERIOD

 REUSING DRNS FROM LAST STRESS PERIOD

 REUSING RCHS FROM LAST STRESS PERIOD


  VOLUME BUDGET FOR ENTIRE MODEL AT END OF TIME STEP    1, STRESS PERIOD  61
  ---------------------------------------------------------------------------------------------------

     CUMULATIVE VOLUME      L**3       RATES FOR THIS TIME STEP      L**3/T          PACKAGE NAME    
     ------------------                 ------------------------                     ----------------

           IN:                                      IN:
           ---                                      ---
              STO-SS =           0.0000                STO-SS =           0.0000     STORAGE         
              STO-SY =  1352479460.5786                STO-SY =    10051877.4997     STORAGE         
                 WEL =           0.0000                   WEL =           0.0000     WEL_0           
                 DRN =           0.0000                   DRN =           0.0000     DRN_0           
                 RCH =  4596149888.8716                   RCH =   136612328.6474     RCH_0           

            TOTAL IN =  5948629349.4502              TOTAL IN =   146664206.1471

          OUT:                                     OUT:
          ----                                     ----
              STO-SS =           0.0000                STO-SS =           0.0000     STORAGE         
              STO-SY =  1706361634.4696                STO-SY =    45253360.1703     STORAGE         
                 WEL =   723413951.1506                   WEL =     3531102.0368     WEL_0           
                 DRN =  3518853904.8849                   DRN =    97879741.4903     DRN_0           
                 RCH =           0.0000                   RCH =           0.0000     RCH_0           

           TOTAL OUT =  5948629490.5051             TOTAL OUT =   146664203.6973

            IN - OUT =        -141.0549              IN - OUT =           2.4498

 PERCENT DISCREPANCY =          -0.00     PERCENT DISCREPANCY =           0.00




         TIME SUMMARY AT END OF TIME STEP    1 IN STRESS PERIOD   61
                          TIME STEP LENGTH =    1.00000    
                        STRESS PERIOD TIME =    1.00000    
                     TOTAL SIMULATION TIME =    61.0000    

end timestep


start timestep kper="62" kstp="1" mode="normal"


 OUTPUT CONTROL FOR STRESS PERIOD 62 IS REPEATED USING SETTINGS FROM A PREVIOUS STRESS PERIOD.


 STRESS PERIOD 62 IS TRANSIENT


 REUSING WELS FROM LAST STRESS PERIOD

 REUSING DRNS FROM LAST STRESS PERIOD

 REUSING RCHS FROM LAST STRESS PERIOD


  VOLUME BUDGET FOR ENTIRE MODEL AT END OF TIME STEP    1, STRESS PERIOD  62
  ---------------------------------------------------------------------------------------------------

     CUMULATIVE VOLUME      L**3       RATES FOR THIS TIME STEP      L**3/T          PACKAGE NAME    
     ------------------                 ------------------------                     ----------------

           IN:                                      IN:
           ---                                      ---
              STO-SS =           0.0000                STO-SS =           0.0000     STORAGE         
              STO-SY =  1368500239.6960                STO-SY =    16020779.1174     STORAGE         
                 WEL =           0.0000                   WEL =           0.0000     WEL_0           
                 DRN =           0.0000                   DRN =           0.0000     DRN_0           
                 RCH =  4691386436.1067                   RCH =    95236547.2350     RCH_0           

            TOTAL IN =  6059886675.8026              TOTAL IN =   111257326.3525

          OUT:                                     OUT:
          ----                                     ----
              STO-SS =           0.0000                STO-SS =           0.0000     STORAGE         
              STO-SY =  1721857120.8049                STO-SY =    15495486.3354     STORAGE         
                 WEL =   727119686.5810                   WEL =     3705735.4304     WEL_0           
                 DRN =  3610910003.7275                   DRN =    92056098.8426     DRN_0           
                 RCH =           0.0000                   RCH =           0.0000     RCH_0           

           TOTAL OUT =  6059886811.1134             TOTAL OUT =   111257320.6084

            IN - OUT =        -135.3108              IN - OUT =           5.7441

 PERCENT DISCREPANCY =          -0.00     PERCENT DISCREPANCY =           0.00




         TIME SUMMARY AT END OF TIME STEP    1 IN STRESS PERIOD   62
                          TIME STEP LENGTH =    1.00000    
                        STRESS PERIOD TIME =    1.00000    
                     TOTAL SIMULATION TIME =    62.0000    

end timestep


start timestep kper="63" kstp="1" mode="normal"


 OUTPUT CONTROL FOR STRESS PERIOD 63 IS REPEATED USING SETTINGS FROM A PREVIOUS STRESS PERIOD.


 STRESS PERIOD 63 IS TRANSIENT


 REUSING WELS FROM LAST STRESS PERIOD

 REUSING DRNS FROM LAST STRESS PERIOD

 REUSING RCHS FROM LAST STRESS PERIOD


  VOLUME BUDGET FOR ENTIRE MODEL AT END OF TIME STEP    1, STRESS PERIOD  63
  ---------------------------------------------------------------------------------------------------

     CUMULATIVE VOLUME      L**3       RATES FOR THIS TIME STEP      L**3/T          PACKAGE NAME    
     ------------------                 ------------------------                     ----------------

           IN:                                      IN:
           ---                                      ---
              STO-SS =           0.0000                STO-SS =           0.0000     STORAGE         
              STO-SY =  1377245629.8021                STO-SY =     8745390.1061     STORAGE         
                 WEL =           0.0000                   WEL =           0.0000     WEL_0           
                 DRN =           0.0000                   DRN =           0.0000     DRN_0           
                 RCH =  4795395682.4172                   RCH =   104009246.3106     RCH_0           

            TOTAL IN =  6172641312.2193              TOTAL IN =   112754636.4166

          OUT:                                     OUT:
          ----                                     ----
              STO-SS =           0.0000                STO-SS =           0.0000     STORAGE         
              STO-SY =  1747208664.8638                STO-SY =    25351544.0589     STORAGE         
                 WEL =   730723699.3591                   WEL =     3604012.7781     WEL_0           
                 DRN =  3694709050.3349                   DRN =    83799046.6074     DRN_0           
                 RCH =           0.0000                   RCH =           0.0000     RCH_0           

           TOTAL OUT =  6172641414.5578             TOTAL OUT =   112754603.4444

            IN - OUT =        -102.3385              IN - OUT =          32.9723

 PERCENT DISCREPANCY =          -0.00     PERCENT DISCREPANCY =           0.00




         TIME SUMMARY AT END OF TIME STEP    1 IN STRESS PERIOD   63
                          TIME STEP LENGTH =    1.00000    
                        STRESS PERIOD TIME =    1.00000    
                     TOTAL SIMULATION TIME =    63.0000    

end timestep


start timestep kper="64" kstp="1" mode="normal"


 OUTPUT CONTROL FOR STRESS PERIOD 64 IS REPEATED USING SETTINGS FROM A PREVIOUS STRESS PERIOD.


 STRESS PERIOD 64 IS TRANSIENT


 REUSING WELS FROM LAST STRESS PERIOD

 REUSING DRNS FROM LAST STRESS PERIOD

 REUSING RCHS FROM LAST STRESS PERIOD


  VOLUME BUDGET FOR ENTIRE MODEL AT END OF TIME STEP    1, STRESS PERIOD  64
  ---------------------------------------------------------------------------------------------------

     CUMULATIVE VOLUME      L**3       RATES FOR THIS TIME STEP      L**3/T          PACKAGE NAME    
     ------------------                 ------------------------                     ----------------

           IN:                                      IN:
           ---                                      ---
              STO-SS =           0.0000                STO-SS =           0.0000     STORAGE         
              STO-SY =  1397343722.2310                STO-SY =    20098092.4289     STORAGE         
                 WEL =           0.0000                   WEL =           0.0000     WEL_0           
                 DRN =           0.0000                   DRN =           0.0000     DRN_0           
                 RCH =  4868223907.4076                   RCH =    72828224.9904     RCH_0           

            TOTAL IN =  6265567629.6386              TOTAL IN =    92926317.4193

          OUT:                                     OUT:
          ----                                     ----
              STO-SS =           0.0000                STO-SS =           0.0000     STORAGE         
              STO-SY =  1755652547.3088                STO-SY =     8443882.4450     STORAGE         
                 WEL =   734720064.1231                   WEL =     3996364.7640     WEL_0           
                 DRN =  3775195120.7390                   DRN =    80486070.4041     DRN_0           
                 RCH =           0.0000                   RCH =           0.0000     RCH_0           

           TOTAL OUT =  6265567732.1709             TOTAL OUT =    92926317.6132

            IN - OUT =        -102.5324              IN - OUT =          -0.1939

 PERCENT DISCREPANCY =          -0.00     PERCENT DISCREPANCY =          -0.00




         TIME SUMMARY AT END OF TIME STEP    1 IN STRESS PERIOD   64
                          TIME STEP LENGTH =    1.00000    
                        STRESS PERIOD TIME =    1.00000    
                     TOTAL SIMULATION TIME =    64.0000    

end timestep


start timestep kper="65" kstp="1" mode="normal"


 OUTPUT CONTROL FOR STRESS PERIOD 65 IS REPEATED USING SETTINGS FROM A PREVIOUS STRESS PERIOD.


 STRESS PERIOD 65 IS TRANSIENT


 REUSING WELS FROM LAST STRESS PERIOD

 REUSING DRNS FROM LAST STRESS PERIOD

 REUSING RCHS FROM LAST STRESS PERIOD


  VOLUME BUDGET FOR ENTIRE MODEL AT END OF TIME STEP    1, STRESS PERIOD  65
  ---------------------------------------------------------------------------------------------------

     CUMULATIVE VOLUME      L**3       RATES FOR THIS TIME STEP      L**3/T          PACKAGE NAME    
     ------------------                 ------------------------                     ----------------

           IN:                                      IN:
           ---                                      ---
              STO-SS =           0.0000                STO-SS =           0.0000     STORAGE         
              STO-SY =  1417859242.7702                STO-SY =    20515520.5392     STORAGE         
                 WEL =           0.0000                   WEL =           0.0000     WEL_0           
                 DRN =           0.0000                   DRN =           0.0000     DRN_0           
                 RCH =  4928157006.5114                   RCH =    59933099.1039     RCH_0           

            TOTAL IN =  6346016249.2816              TOTAL IN =    80448619.6431

          OUT:                                     OUT:
          ----                                     ----
              STO-SS =           0.0000                STO-SS =           0.0000     STORAGE         
              STO-SY =  1762958667.5230                STO-SY =     7306120.2142     STORAGE         
                 WEL =   738923276.7734                   WEL =     4203212.6504     WEL_0           
                 DRN =  3844134398.7127                   DRN =    68939277.9737     DRN_0           
                 RCH =           0.0000                   RCH =           0.0000     RCH_0           

           TOTAL OUT =  6346016343.0092             TOTAL OUT =    80448610.8382

            IN - OUT =         -93.7276              IN - OUT =           8.8048

 PERCENT DISCREPANCY =          -0.00     PERCENT DISCREPANCY =           0.00




         TIME SUMMARY AT END OF TIME STEP    1 IN STRESS PERIOD   65
                          TIME STEP LENGTH =    1.00000    
                        STRESS PERIOD TIME =    1.00000    
                     TOTAL SIMULATION TIME =    65.0000    

end timestep


start timestep kper="66" kstp="1" mode="normal"


 OUTPUT CONTROL FOR STRESS PERIOD 66 IS REPEATED USING SETTINGS FROM A PREVIOUS STRESS PERIOD.


 STRESS PERIOD 66 IS TRANSIENT


 REUSING WELS FROM LAST STRESS PERIOD

 REUSING DRNS FROM LAST STRESS PERIOD

 REUSING RCHS FROM LAST STRESS PERIOD


  VOLUME BUDGET FOR ENTIRE MODEL AT END OF TIME STEP    1, STRESS PERIOD  66
  ---------------------------------------------------------------------------------------------------

     CUMULATIVE VOLUME      L**3       RATES FOR THIS TIME STEP      L**3/T          PACKAGE NAME    
     ------------------                 ------------------------                     ----------------

           IN:                                      IN:
           ---                                      ---
              STO-SS =           0.0000                STO-SS =           0.0000     STORAGE         
              STO-SY =  1434661910.3093                STO-SY =    16802667.5391     STORAGE         
                 WEL =           0.0000                   WEL =           0.0000     WEL_0           
                 DRN =           0.0000                   DRN =           0.0000     DRN_0           
                 RCH =  5003433091.8607                   RCH =    75276085.3493     RCH_0           

            TOTAL IN =  6438095002.1700              TOTAL IN =    92078752.8884

          OUT:                                     OUT:
          ----                                     ----
              STO-SS =           0.0000                STO-SS =           0.0000     STORAGE         
              STO-SY =  1771300016.3711                STO-SY =     8341348.8481     STORAGE         
                 WEL =   743205359.2146                   WEL =     4282082.4412     WEL_0           
                 DRN =  3923589684.6978                   DRN =    79455285.9851     DRN_0           
                 RCH =           0.0000                   RCH =           0.0000     RCH_0           

           TOTAL OUT =  6438095060.2836             TOTAL OUT =    92078717.2744

            IN - OUT =         -58.1135              IN - OUT =          35.6140

 PERCENT DISCREPANCY =          -0.00     PERCENT DISCREPANCY =           0.00




         TIME SUMMARY AT END OF TIME STEP    1 IN STRESS PERIOD   66
                          TIME STEP LENGTH =    1.00000    
                        STRESS PERIOD TIME =    1.00000    
                     TOTAL SIMULATION TIME =    66.0000    

end timestep


start timestep kper="67" kstp="1" mode="normal"


 OUTPUT CONTROL FOR STRESS PERIOD 67 IS REPEATED USING SETTINGS FROM A PREVIOUS STRESS PERIOD.


 STRESS PERIOD 67 IS TRANSIENT


 REUSING WELS FROM LAST STRESS PERIOD

 REUSING DRNS FROM LAST STRESS PERIOD

 REUSING RCHS FROM LAST STRESS PERIOD


  VOLUME BUDGET FOR ENTIRE MODEL AT END OF TIME STEP    1, STRESS PERIOD  67
  ---------------------------------------------------------------------------------------------------

     CUMULATIVE VOLUME      L**3       RATES FOR THIS TIME STEP      L**3/T          PACKAGE NAME    
     ------------------                 ------------------------                     ----------------

           IN:                                      IN:
           ---                                      ---
              STO-SS =           0.0000                STO-SS =           0.0000     STORAGE         
              STO-SY =  1457914486.9706                STO-SY =    23252576.6613     STORAGE         
                 WEL =           0.0000                   WEL =           0.0000     WEL_0           
                 DRN =           0.0000                   DRN =           0.0000     DRN_0           
                 RCH =  5055151693.5518                   RCH =    51718601.6911     RCH_0           

            TOTAL IN =  6513066180.5224              TOTAL IN =    74971178.3523

          OUT:                                     OUT:
          ----                                     ----
              STO-SS =           0.0000                STO-SS =           0.0000     STORAGE         
              STO-SY =  1776654436.3621                STO-SY =     5354419.9910     STORAGE         
                 WEL =   747725704.1865                   WEL =     4520344.9719     WEL_0           
                 DRN =  3988686088.5507                   DRN =    65096403.8530     DRN_0           
                 RCH =           0.0000                   RCH =           0.0000     RCH_0           

           TOTAL OUT =  6513066229.0994             TOTAL OUT =    74971168.8159

            IN - OUT =         -48.5771              IN - OUT =           9.5365

 PERCENT DISCREPANCY =          -0.00     PERCENT DISCREPANCY =           0.00




         TIME SUMMARY AT END OF TIME STEP    1 IN STRESS PERIOD   67
                          TIME STEP LENGTH =    1.00000    
                        STRESS PERIOD TIME =    1.00000    
                     TOTAL SIMULATION TIME =    67.0000    

end timestep


start timestep kper="68" kstp="1" mode="normal"


 OUTPUT CONTROL FOR STRESS PERIOD 68 IS REPEATED USING SETTINGS FROM A PREVIOUS STRESS PERIOD.


 STRESS PERIOD 68 IS TRANSIENT


 REUSING WELS FROM LAST STRESS PERIOD

 REUSING DRNS FROM LAST STRESS PERIOD

 REUSING RCHS FROM LAST STRESS PERIOD


  VOLUME BUDGET FOR ENTIRE MODEL AT END OF TIME STEP    1, STRESS PERIOD  68
  ---------------------------------------------------------------------------------------------------

     CUMULATIVE VOLUME      L**3       RATES FOR THIS TIME STEP      L**3/T          PACKAGE NAME    
     ------------------                 ------------------------                     ----------------

           IN:                                      IN:
           ---                                      ---
              STO-SS =           0.0000                STO-SS =           0.0000     STORAGE         
              STO-SY =  1483338432.5938                STO-SY =    25423945.6232     STORAGE         
                 WEL =           0.0000                   WEL =           0.0000     WEL_0           
                 DRN =           0.0000                   DRN =           0.0000     DRN_0           
                 RCH =  5106773115.8222                   RCH =    51621422.2704     RCH_0           

            TOTAL IN =  6590111548.4160              TOTAL IN =    77045367.8936

          OUT:                                     OUT:
          ----                                     ----
              STO-SS =           0.0000                STO-SS =           0.0000     STORAGE         
              STO-SY =  1781545408.3753                STO-SY =     4890972.0132     STORAGE         
                 WEL =   752554715.1521                   WEL =     4829010.9656     WEL_0           
                 DRN =  4056011471.0019                   DRN =    67325382.4512     DRN_0           
                 RCH =           0.0000                   RCH =           0.0000     RCH_0           

           TOTAL OUT =  6590111594.5294             TOTAL OUT =    77045365.4300

            IN - OUT =         -46.1134              IN - OUT =           2.4637

 PERCENT DISCREPANCY =          -0.00     PERCENT DISCREPANCY =           0.00




         TIME SUMMARY AT END OF TIME STEP    1 IN STRESS PERIOD   68
                          TIME STEP LENGTH =    1.00000    
                        STRESS PERIOD TIME =    1.00000    
                     TOTAL SIMULATION TIME =    68.0000    

end timestep


start timestep kper="69" kstp="1" mode="normal"


 OUTPUT CONTROL FOR STRESS PERIOD 69 IS REPEATED USING SETTINGS FROM A PREVIOUS STRESS PERIOD.


 STRESS PERIOD 69 IS TRANSIENT


 REUSING WELS FROM LAST STRESS PERIOD

 REUSING DRNS FROM LAST STRESS PERIOD

 REUSING RCHS FROM LAST STRESS PERIOD


  VOLUME BUDGET FOR ENTIRE MODEL AT END OF TIME STEP    1, STRESS PERIOD  69
  ---------------------------------------------------------------------------------------------------

     CUMULATIVE VOLUME      L**3       RATES FOR THIS TIME STEP      L**3/T          PACKAGE NAME    
     ------------------                 ------------------------                     ----------------

           IN:                                      IN:
           ---                                      ---
              STO-SS =           0.0000                STO-SS =           0.0000     STORAGE         
              STO-SY =  1507295935.4411                STO-SY =    23957502.8474     STORAGE         
                 WEL =           0.0000                   WEL =           0.0000     WEL_0           
                 DRN =           0.0000                   DRN =           0.0000     DRN_0           
                 RCH =  5152588147.8967                   RCH =    45815032.0745     RCH_0           

            TOTAL IN =  6659884083.3379              TOTAL IN =    69772534.9219

          OUT:                                     OUT:
          ----                                     ----
              STO-SS =           0.0000                STO-SS =           0.0000     STORAGE         
              STO-SY =  1786097146.8700                STO-SY =     4551738.4947     STORAGE         
                 WEL =   757633499.3076                   WEL =     5078784.1555     WEL_0           
                 DRN =  4116153398.6358                   DRN =    60141927.6338     DRN_0           
                 RCH =           0.0000                   RCH =           0.0000     RCH_0           

           TOTAL OUT =  6659884044.8134             TOTAL OUT =    69772450.2840

            IN - OUT =          38.5245              IN - OUT =          84.6379

 PERCENT DISCREPANCY =           0.00     PERCENT DISCREPANCY =           0.00




         TIME SUMMARY AT END OF TIME STEP    1 IN STRESS PERIOD   69
                          TIME STEP LENGTH =    1.00000    
                        STRESS PERIOD TIME =    1.00000    
                     TOTAL SIMULATION TIME =    69.0000    

end timestep


start timestep kper="70" kstp="1" mode="normal"


 OUTPUT CONTROL FOR STRESS PERIOD 70 IS REPEATED USING SETTINGS FROM A PREVIOUS STRESS PERIOD.


 STRESS PERIOD 70 IS TRANSIENT


 REUSING WELS FROM LAST STRESS PERIOD

 REUSING DRNS FROM LAST STRESS PERIOD

 REUSING RCHS FROM LAST STRESS PERIOD


  VOLUME BUDGET FOR ENTIRE MODEL AT END OF TIME STEP    1, STRESS PERIOD  70
  ---------------------------------------------------------------------------------------------------

     CUMULATIVE VOLUME      L**3       RATES FOR THIS TIME STEP      L**3/T          PACKAGE NAME    
     ------------------                 ------------------------                     ----------------

           IN:                                      IN:
           ---                                      ---
              STO-SS =           0.0000                STO-SS =           0.0000     STORAGE         
              STO-SY =  1530772891.6317                STO-SY =    23476956.1905     STORAGE         
                 WEL =           0.0000                   WEL =           0.0000     WEL_0           
                 DRN =           0.0000                   DRN =           0.0000     DRN_0           
                 RCH =  5205407988.3523                   RCH =    52819840.4555     RCH_0           

            TOTAL IN =  6736180879.9839              TOTAL IN =    76296796.6461

          OUT:                                     OUT:
          ----                                     ----
              STO-SS =           0.0000                STO-SS =           0.0000     STORAGE         
              STO-SY =  1790654332.0971                STO-SY =     4557185.2271     STORAGE         
                 WEL =   762849194.2070                   WEL =     5215694.8994     WEL_0           
                 DRN =  4182677304.9006                   DRN =    66523906.2649     DRN_0           
                 RCH =           0.0000                   RCH =           0.0000     RCH_0           

           TOTAL OUT =  6736180831.2047             TOTAL OUT =    76296786.3913

            IN - OUT =          48.7792              IN - OUT =          10.2547

 PERCENT DISCREPANCY =           0.00     PERCENT DISCREPANCY =           0.00




         TIME SUMMARY AT END OF TIME STEP    1 IN STRESS PERIOD   70
                          TIME STEP LENGTH =    1.00000    
                        STRESS PERIOD TIME =    1.00000    
                     TOTAL SIMULATION TIME =    70.0000    

end timestep


start timestep kper="71" kstp="1" mode="normal"


 OUTPUT CONTROL FOR STRESS PERIOD 71 IS REPEATED USING SETTINGS FROM A PREVIOUS STRESS PERIOD.


 STRESS PERIOD 71 IS TRANSIENT


 REUSING WELS FROM LAST STRESS PERIOD

 REUSING DRNS FROM LAST STRESS PERIOD

 REUSING RCHS FROM LAST STRESS PERIOD


  VOLUME BUDGET FOR ENTIRE MODEL AT END OF TIME STEP    1, STRESS PERIOD  71
  ---------------------------------------------------------------------------------------------------

     CUMULATIVE VOLUME      L**3       RATES FOR THIS TIME STEP      L**3/T          PACKAGE NAME    
     ------------------                 ------------------------                     ----------------

           IN:                                      IN:
           ---                                      ---
              STO-SS =           0.0000                STO-SS =           0.0000     STORAGE         
              STO-SY =  1558315616.3159                STO-SY =    27542724.6843     STORAGE         
                 WEL =           0.0000                   WEL =           0.0000     WEL_0           
                 DRN =           0.0000                   DRN =           0.0000     DRN_0           
                 RCH =  5243141756.1175                   RCH =    37733767.7652     RCH_0           

            TOTAL IN =  6801457372.4334              TOTAL IN =    65276492.4494

          OUT:                                     OUT:
          ----                                     ----
              STO-SS =           0.0000                STO-SS =           0.0000     STORAGE         
              STO-SY =  1794298791.4914                STO-SY =     3644459.3942     STORAGE         
                 WEL =   769101354.0722                   WEL =     6252159.8652     WEL_0           
                 DRN =  4238057144.4032                   DRN =    55379839.5026     DRN_0           
                 RCH =           0.0000                   RCH =           0.0000     RCH_0           

           TOTAL OUT =  6801457289.9668             TOTAL OUT =    65276458.7621

            IN - OUT =          82.4666              IN - OUT =          33.6874

 PERCENT DISCREPANCY =           0.00     PERCENT DISCREPANCY =           0.00




         TIME SUMMARY AT END OF TIME STEP    1 IN STRESS PERIOD   71
                          TIME STEP LENGTH =    1.00000    
                        STRESS PERIOD TIME =    1.00000    
                     TOTAL SIMULATION TIME =    71.0000    

end timestep


start timestep kper="72" kstp="1" mode="normal"


 OUTPUT CONTROL FOR STRESS PERIOD 72 IS REPEATED USING SETTINGS FROM A PREVIOUS STRESS PERIOD.


 STRESS PERIOD 72 IS TRANSIENT


 REUSING WELS FROM LAST STRESS PERIOD

 REUSING DRNS FROM LAST STRESS PERIOD

 REUSING RCHS FROM LAST STRESS PERIOD


  VOLUME BUDGET FOR ENTIRE MODEL AT END OF TIME STEP    1, STRESS PERIOD  72
  ---------------------------------------------------------------------------------------------------

     CUMULATIVE VOLUME      L**3       RATES FOR THIS TIME STEP      L**3/T          PACKAGE NAME    
     ------------------                 ------------------------                     ----------------

           IN:                                      IN:
           ---                                      ---
              STO-SS =           0.0000                STO-SS =           0.0000     STORAGE         
              STO-SY =  1581667273.0669                STO-SY =    23351656.7510     STORAGE         
                 WEL =           0.0000                   WEL =           0.0000     WEL_0           
                 DRN =           0.0000                   DRN =           0.0000     DRN_0           
                 RCH =  5297284272.4673                   RCH =    54142516.3498     RCH_0           

            TOTAL IN =  6878951545.5342              TOTAL IN =    77494173.1008

          OUT:                                     OUT:
          ----                                     ----
              STO-SS =           0.0000                STO-SS =           0.0000     STORAGE         
              STO-SY =  1799701670.2209                STO-SY =     5402878.7296     STORAGE         
                 WEL =   778314092.3477                   WEL =     9212738.2755     WEL_0           
                 DRN =  4300935677.7256                   DRN =    62878533.3224     DRN_0           
                 RCH =           0.0000                   RCH =           0.0000     RCH_0           

           TOTAL OUT =  6878951440.2942             TOTAL OUT =    77494150.3275

            IN - OUT =         105.2399              IN - OUT =          22.7733

 PERCENT DISCREPANCY =           0.00     PERCENT DISCREPANCY =           0.00




         TIME SUMMARY AT END OF TIME STEP    1 IN STRESS PERIOD   72
                          TIME STEP LENGTH =    1.00000    
                        STRESS PERIOD TIME =    1.00000    
                     TOTAL SIMULATION TIME =    72.0000    

end timestep


start timestep kper="73" kstp="1" mode="normal"


 OUTPUT CONTROL FOR STRESS PERIOD 73 IS REPEATED USING SETTINGS FROM A PREVIOUS STRESS PERIOD.


 STRESS PERIOD 73 IS TRANSIENT


 REUSING WELS FROM LAST STRESS PERIOD

 REUSING DRNS FROM LAST STRESS PERIOD

 REUSING RCHS FROM LAST STRESS PERIOD


  VOLUME BUDGET FOR ENTIRE MODEL AT END OF TIME STEP    1, STRESS PERIOD  73
  ---------------------------------------------------------------------------------------------------

     CUMULATIVE VOLUME      L**3       RATES FOR THIS TIME STEP      L**3/T          PACKAGE NAME    
     ------------------                 ------------------------                     ----------------

           IN:                                      IN:
           ---                                      ---
              STO-SS =           0.0000                STO-SS =           0.0000     STORAGE         
              STO-SY =  1601012876.2172                STO-SY =    19345603.1503     STORAGE         
                 WEL =           0.0000                   WEL =           0.0000     WEL_0           
                 DRN =           0.0000                   DRN =           0.0000     DRN_0           
                 RCH =  5350342309.9685                   RCH =    53058037.5012     RCH_0           

            TOTAL IN =  6951355186.1856              TOTAL IN =    72403640.6515

          OUT:                                     OUT:
          ----                                     ----
              STO-SS =           0.0000                STO-SS =           0.0000     STORAGE         
              STO-SY =  1805345117.5388                STO-SY =     5643447.3178     STORAGE         
                 WEL =   785015400.9508                   WEL =     6701308.6031     WEL_0           
                 DRN =  4360994531.3484                   DRN =    60058853.6228     DRN_0           
                 RCH =           0.0000                   RCH =           0.0000     RCH_0           

           TOTAL OUT =  6951355049.8380             TOTAL OUT =    72403609.5437

            IN - OUT =         136.3477              IN - OUT =          31.1078

 PERCENT DISCREPANCY =           0.00     PERCENT DISCREPANCY =           0.00




         TIME SUMMARY AT END OF TIME STEP    1 IN STRESS PERIOD   73
                          TIME STEP LENGTH =    1.00000    
                        STRESS PERIOD TIME =    1.00000    
                     TOTAL SIMULATION TIME =    73.0000    

end timestep


start timestep kper="74" kstp="1" mode="normal"


 OUTPUT CONTROL FOR STRESS PERIOD 74 IS REPEATED USING SETTINGS FROM A PREVIOUS STRESS PERIOD.


 STRESS PERIOD 74 IS TRANSIENT


 REUSING WELS FROM LAST STRESS PERIOD

 REUSING DRNS FROM LAST STRESS PERIOD

 REUSING RCHS FROM LAST STRESS PERIOD


  VOLUME BUDGET FOR ENTIRE MODEL AT END OF TIME STEP    1, STRESS PERIOD  74
  ---------------------------------------------------------------------------------------------------

     CUMULATIVE VOLUME      L**3       RATES FOR THIS TIME STEP      L**3/T          PACKAGE NAME    
     ------------------                 ------------------------                     ----------------

           IN:                                      IN:
           ---                                      ---
              STO-SS =           0.0000                STO-SS =           0.0000     STORAGE         
              STO-SY =  1621023750.7968                STO-SY =    20010874.5796     STORAGE         
                 WEL =           0.0000                   WEL =           0.0000     WEL_0           
                 DRN =           0.0000                   DRN =           0.0000     DRN_0           
                 RCH =  5405708136.2181                   RCH =    55365826.2497     RCH_0           

            TOTAL IN =  7026731887.0149              TOTAL IN =    75376700.8293

          OUT:                                     OUT:
          ----                                     ----
              STO-SS =           0.0000                STO-SS =           0.0000     STORAGE         
              STO-SY =  1810832025.0202                STO-SY =     5486907.4814     STORAGE         
                 WEL =   790418748.1557                   WEL =     5403347.2049     WEL_0           
                 DRN =  4425480982.5500                   DRN =    64486451.2016     DRN_0           
                 RCH =           0.0000                   RCH =           0.0000     RCH_0           

           TOTAL OUT =  7026731755.7259             TOTAL OUT =    75376705.8879

            IN - OUT =         131.2890              IN - OUT =          -5.0586

 PERCENT DISCREPANCY =           0.00     PERCENT DISCREPANCY =          -0.00




         TIME SUMMARY AT END OF TIME STEP    1 IN STRESS PERIOD   74
                          TIME STEP LENGTH =    1.00000    
                        STRESS PERIOD TIME =    1.00000    
                     TOTAL SIMULATION TIME =    74.0000    

end timestep


start timestep kper="75" kstp="1" mode="normal"


 OUTPUT CONTROL FOR STRESS PERIOD 75 IS REPEATED USING SETTINGS FROM A PREVIOUS STRESS PERIOD.


 STRESS PERIOD 75 IS TRANSIENT


 REUSING WELS FROM LAST STRESS PERIOD

 REUSING DRNS FROM LAST STRESS PERIOD

 REUSING RCHS FROM LAST STRESS PERIOD


  VOLUME BUDGET FOR ENTIRE MODEL AT END OF TIME STEP    1, STRESS PERIOD  75
  ---------------------------------------------------------------------------------------------------

     CUMULATIVE VOLUME      L**3       RATES FOR THIS TIME STEP      L**3/T          PACKAGE NAME    
     ------------------                 ------------------------                     ----------------

           IN:                                      IN:
           ---                                      ---
              STO-SS =           0.0000                STO-SS =           0.0000     STORAGE         
              STO-SY =  1640388164.4122                STO-SY =    19364413.6154     STORAGE         
                 WEL =           0.0000                   WEL =           0.0000     WEL_0           
                 DRN =           0.0000                   DRN =           0.0000     DRN_0           
                 RCH =  5454808182.6026                   RCH =    49100046.3844     RCH_0           

            TOTAL IN =  7095196347.0148              TOTAL IN =    68464459.9998

          OUT:                                     OUT:
          ----                                     ----
              STO-SS =           0.0000                STO-SS =           0.0000     STORAGE         
              STO-SY =  1816042228.9804                STO-SY =     5210203.9602     STORAGE         
                 WEL =   795613252.3846                   WEL =     5194504.2289     WEL_0           
                 DRN =  4483540711.5803                   DRN =    58059729.0303     DRN_0           
                 RCH =           0.0000                   RCH =           0.0000     RCH_0           

           TOTAL OUT =  7095196192.9453             TOTAL OUT =    68464437.2194

            IN - OUT =         154.0695              IN - OUT =          22.7804

 PERCENT DISCREPANCY =           0.00     PERCENT DISCREPANCY =           0.00




         TIME SUMMARY AT END OF TIME STEP    1 IN STRESS PERIOD   75
                          TIME STEP LENGTH =    1.00000    
                        STRESS PERIOD TIME =    1.00000    
                     TOTAL SIMULATION TIME =    75.0000    

end timestep


start timestep kper="76" kstp="1" mode="normal"


 OUTPUT CONTROL FOR STRESS PERIOD 76 IS REPEATED USING SETTINGS FROM A PREVIOUS STRESS PERIOD.


 STRESS PERIOD 76 IS TRANSIENT


 REUSING WELS FROM LAST STRESS PERIOD

 REUSING DRNS FROM LAST STRESS PERIOD

 REUSING RCHS FROM LAST STRESS PERIOD


  VOLUME BUDGET FOR ENTIRE MODEL AT END OF TIME STEP    1, STRESS PERIOD  76
  ---------------------------------------------------------------------------------------------------

     CUMULATIVE VOLUME      L**3       RATES FOR THIS TIME STEP      L**3/T          PACKAGE NAME    
     ------------------                 ------------------------                     ----------------

           IN:                                      IN:
           ---                                      ---
              STO-SS =           0.0000                STO-SS =           0.0000     STORAGE         
              STO-SY =  1666148619.5928                STO-SY =    25760455.1807     STORAGE         
                 WEL =           0.0000                   WEL =           0.0000     WEL_0           
                 DRN =           0.0000                   DRN =           0.0000     DRN_0           
                 RCH =  5495684576.3453                   RCH =    40876393.7427     RCH_0           

            TOTAL IN =  7161833195.9381              TOTAL IN =    66636848.9234

          OUT:                                     OUT:
          ----                                     ----
              STO-SS =           0.0000                STO-SS =           0.0000     STORAGE         
              STO-SY =  1819942639.8069                STO-SY =     3900410.8265     STORAGE         
                 WEL =   801351855.9841                   WEL =     5738603.5995     WEL_0           
                 DRN =  4540538510.1487                   DRN =    56997798.5684     DRN_0           
                 RCH =           0.0000                   RCH =           0.0000     RCH_0           

           TOTAL OUT =  7161833005.9397             TOTAL OUT =    66636812.9944

            IN - OUT =         189.9985              IN - OUT =          35.9290

 PERCENT DISCREPANCY =           0.00     PERCENT DISCREPANCY =           0.00




         TIME SUMMARY AT END OF TIME STEP    1 IN STRESS PERIOD   76
                          TIME STEP LENGTH =    1.00000    
                        STRESS PERIOD TIME =    1.00000    
                     TOTAL SIMULATION TIME =    76.0000    

end timestep


start timestep kper="77" kstp="1" mode="normal"


 OUTPUT CONTROL FOR STRESS PERIOD 77 IS REPEATED USING SETTINGS FROM A PREVIOUS STRESS PERIOD.


 STRESS PERIOD 77 IS TRANSIENT


 REUSING WELS FROM LAST STRESS PERIOD

 REUSING DRNS FROM LAST STRESS PERIOD

 REUSING RCHS FROM LAST STRESS PERIOD


  VOLUME BUDGET FOR ENTIRE MODEL AT END OF TIME STEP    1, STRESS PERIOD  77
  ---------------------------------------------------------------------------------------------------

     CUMULATIVE VOLUME      L**3       RATES FOR THIS TIME STEP      L**3/T          PACKAGE NAME    
     ------------------                 ------------------------                     ----------------

           IN:                                      IN:
           ---                                      ---
              STO-SS =           0.0000                STO-SS =           0.0000     STORAGE         
              STO-SY =  1691122223.5832                STO-SY =    24973603.9904     STORAGE         
                 WEL =           0.0000                   WEL =           0.0000     WEL_0           
                 DRN =           0.0000                   DRN =           0.0000     DRN_0           
                 RCH =  5532080752.8596                   RCH =    36396176.5143     RCH_0           

            TOTAL IN =  7223202976.4428              TOTAL IN =    61369780.5046

          OUT:                                     OUT:
          ----                                     ----
              STO-SS =           0.0000                STO-SS =           0.0000     STORAGE         
              STO-SY =  1823327043.6352                STO-SY =     3384403.8283     STORAGE         
                 WEL =   807290797.3564                   WEL =     5938941.3722     WEL_0           
                 DRN =  4592584941.8302                   DRN =    52046431.6815     DRN_0           
                 RCH =           0.0000                   RCH =           0.0000     RCH_0           

           TOTAL OUT =  7223202782.8218             TOTAL OUT =    61369776.8821

            IN - OUT =         193.6210              IN - OUT =           3.6226

 PERCENT DISCREPANCY =           0.00     PERCENT DISCREPANCY =           0.00




         TIME SUMMARY AT END OF TIME STEP    1 IN STRESS PERIOD   77
                          TIME STEP LENGTH =    1.00000    
                        STRESS PERIOD TIME =    1.00000    
                     TOTAL SIMULATION TIME =    77.0000    

end timestep


start timestep kper="78" kstp="1" mode="normal"


 OUTPUT CONTROL FOR STRESS PERIOD 78 IS REPEATED USING SETTINGS FROM A PREVIOUS STRESS PERIOD.


 STRESS PERIOD 78 IS TRANSIENT


 REUSING WELS FROM LAST STRESS PERIOD

 REUSING DRNS FROM LAST STRESS PERIOD

 REUSING RCHS FROM LAST STRESS PERIOD


  VOLUME BUDGET FOR ENTIRE MODEL AT END OF TIME STEP    1, STRESS PERIOD  78
  ---------------------------------------------------------------------------------------------------

     CUMULATIVE VOLUME      L**3       RATES FOR THIS TIME STEP      L**3/T          PACKAGE NAME    
     ------------------                 ------------------------                     ----------------

           IN:                                      IN:
           ---                                      ---
              STO-SS =           0.0000                STO-SS =           0.0000     STORAGE         
              STO-SY =  1715776218.1049                STO-SY =    24653994.5217     STORAGE         
                 WEL =           0.0000                   WEL =           0.0000     WEL_0           
                 DRN =           0.0000                   DRN =           0.0000     DRN_0           
                 RCH =  5572075015.8250                   RCH =    39994262.9654     RCH_0           

            TOTAL IN =  7287851233.9299              TOTAL IN =    64648257.4872

          OUT:                                     OUT:
          ----                                     ----
              STO-SS =           0.0000                STO-SS =           0.0000     STORAGE         
              STO-SY =  1826794885.6969                STO-SY =     3467842.0617     STORAGE         
                 WEL =   813045525.6877                   WEL =     5754728.3314     WEL_0           
                 DRN =  4648010617.3207                   DRN =    55425675.4905     DRN_0           
                 RCH =           0.0000                   RCH =           0.0000     RCH_0           

           TOTAL OUT =  7287851028.7053             TOTAL OUT =    64648245.8836

            IN - OUT =         205.2246              IN - OUT =          11.6036

 PERCENT DISCREPANCY =           0.00     PERCENT DISCREPANCY =           0.00




         TIME SUMMARY AT END OF TIME STEP    1 IN STRESS PERIOD   78
                          TIME STEP LENGTH =    1.00000    
                        STRESS PERIOD TIME =    1.00000    
                     TOTAL SIMULATION TIME =    78.0000    

end timestep


start timestep kper="79" kstp="1" mode="normal"


 OUTPUT CONTROL FOR STRESS PERIOD 79 IS REPEATED USING SETTINGS FROM A PREVIOUS STRESS PERIOD.


 STRESS PERIOD 79 IS TRANSIENT


 REUSING WELS FROM LAST STRESS PERIOD

 REUSING DRNS FROM LAST STRESS PERIOD

 REUSING RCHS FROM LAST STRESS PERIOD


  VOLUME BUDGET FOR ENTIRE MODEL AT END OF TIME STEP    1, STRESS PERIOD  79
  ---------------------------------------------------------------------------------------------------

     CUMULATIVE VOLUME      L**3       RATES FOR THIS TIME STEP      L**3/T          PACKAGE NAME    
     ------------------                 ------------------------                     ----------------

           IN:                                      IN:
           ---                                      ---
              STO-SS =           0.0000                STO-SS =           0.0000     STORAGE         
              STO-SY =  1726360974.9183                STO-SY =    10584756.8133     STORAGE         
                 WEL =           0.0000                   WEL =           0.0000     WEL_0           
                 DRN =           0.0000                   DRN =           0.0000     DRN_0           
                 RCH =  5659669368.4359                   RCH =    87594352.6109     RCH_0           

            TOTAL IN =  7386030343.3541              TOTAL IN =    98179109.4242

          OUT:                                     OUT:
          ----                                     ----
              STO-SS =           0.0000                STO-SS =           0.0000     STORAGE         
              STO-SY =  1856473577.2715                STO-SY =    29678691.5746     STORAGE         
                 WEL =   818934018.1907                   WEL =     5888492.5029     WEL_0           
                 DRN =  4710622543.3138                   DRN =    62611925.9931     DRN_0           
                 RCH =           0.0000                   RCH =           0.0000     RCH_0           

           TOTAL OUT =  7386030138.7759             TOTAL OUT =    98179110.0706

            IN - OUT =         204.5782              IN - OUT =          -0.6464

 PERCENT DISCREPANCY =           0.00     PERCENT DISCREPANCY =          -0.00




         TIME SUMMARY AT END OF TIME STEP    1 IN STRESS PERIOD   79
                          TIME STEP LENGTH =    1.00000    
                        STRESS PERIOD TIME =    1.00000    
                     TOTAL SIMULATION TIME =    79.0000    

end timestep


start timestep kper="80" kstp="1" mode="normal"


 OUTPUT CONTROL FOR STRESS PERIOD 80 IS REPEATED USING SETTINGS FROM A PREVIOUS STRESS PERIOD.


 STRESS PERIOD 80 IS TRANSIENT


 REUSING WELS FROM LAST STRESS PERIOD

 REUSING DRNS FROM LAST STRESS PERIOD

 REUSING RCHS FROM LAST STRESS PERIOD


  VOLUME BUDGET FOR ENTIRE MODEL AT END OF TIME STEP    1, STRESS PERIOD  80
  ---------------------------------------------------------------------------------------------------

     CUMULATIVE VOLUME      L**3       RATES FOR THIS TIME STEP      L**3/T          PACKAGE NAME    
     ------------------                 ------------------------                     ----------------

           IN:                                      IN:
           ---                                      ---
              STO-SS =           0.0000                STO-SS =           0.0000     STORAGE         
              STO-SY =  1741696367.0560                STO-SY =    15335392.1377     STORAGE         
                 WEL =           0.0000                   WEL =           0.0000     WEL_0           
                 DRN =           0.0000                   DRN =           0.0000     DRN_0           
                 RCH =  5738943391.7448                   RCH =    79274023.3089     RCH_0           

            TOTAL IN =  7480639758.8008              TOTAL IN =    94609415.4467

          OUT:                                     OUT:
          ----                                     ----
              STO-SS =           0.0000                STO-SS =           0.0000     STORAGE         
              STO-SY =  1878372672.8591                STO-SY =    21899095.5876     STORAGE         
                 WEL =   824145213.9139                   WEL =     5211195.7232     WEL_0           
                 DRN =  4778121661.9346                   DRN =    67499118.6209     DRN_0           
                 RCH =           0.0000                   RCH =           0.0000     RCH_0           

           TOTAL OUT =  7480639548.7076             TOTAL OUT =    94609409.9317

            IN - OUT =         210.0932              IN - OUT =           5.5150

 PERCENT DISCREPANCY =           0.00     PERCENT DISCREPANCY =           0.00




         TIME SUMMARY AT END OF TIME STEP    1 IN STRESS PERIOD   80
                          TIME STEP LENGTH =    1.00000    
                        STRESS PERIOD TIME =    1.00000    
                     TOTAL SIMULATION TIME =    80.0000    

end timestep


start timestep kper="81" kstp="1" mode="normal"


 OUTPUT CONTROL FOR STRESS PERIOD 81 IS REPEATED USING SETTINGS FROM A PREVIOUS STRESS PERIOD.


 STRESS PERIOD 81 IS TRANSIENT


 REUSING WELS FROM LAST STRESS PERIOD

 REUSING DRNS FROM LAST STRESS PERIOD

 REUSING RCHS FROM LAST STRESS PERIOD


  VOLUME BUDGET FOR ENTIRE MODEL AT END OF TIME STEP    1, STRESS PERIOD  81
  ---------------------------------------------------------------------------------------------------

     CUMULATIVE VOLUME      L**3       RATES FOR THIS TIME STEP      L**3/T          PACKAGE NAME    
     ------------------                 ------------------------                     ----------------

           IN:                                      IN:
           ---                                      ---
              STO-SS =           0.0000                STO-SS =           0.0000     STORAGE         
              STO-SY =  1745260233.7026                STO-SY =     3563866.6466     STORAGE         
                 WEL =           0.0000                   WEL =           0.0000     WEL_0           
                 DRN =           0.0000                   DRN =           0.0000     DRN_0           
                 RCH =  5964610318.3097                   RCH =   225666926.5649     RCH_0           

            TOTAL IN =  7709870552.0123              TOTAL IN =   229230793.2115

          OUT:                                     OUT:
          ----                                     ----
              STO-SS =           0.0000                STO-SS =           0.0000     STORAGE         
              STO-SY =  1995242041.1205                STO-SY =   116869368.2615     STORAGE         
                 WEL =   827509357.8268                   WEL =     3364143.9129     WEL_0           
                 DRN =  4887118942.8981                   DRN =   108997280.9635     DRN_0           
                 RCH =           0.0000                   RCH =           0.0000     RCH_0           

           TOTAL OUT =  7709870341.8455             TOTAL OUT =   229230793.1379

            IN - OUT =         210.1668              IN - OUT =       7.3595E-02

 PERCENT DISCREPANCY =           0.00     PERCENT DISCREPANCY =           0.00




         TIME SUMMARY AT END OF TIME STEP    1 IN STRESS PERIOD   81
                          TIME STEP LENGTH =    1.00000    
                        STRESS PERIOD TIME =    1.00000    
                     TOTAL SIMULATION TIME =    81.0000    

end timestep


start timestep kper="82" kstp="1" mode="normal"


 OUTPUT CONTROL FOR STRESS PERIOD 82 IS REPEATED USING SETTINGS FROM A PREVIOUS STRESS PERIOD.


 STRESS PERIOD 82 IS TRANSIENT


 REUSING WELS FROM LAST STRESS PERIOD

 REUSING DRNS FROM LAST STRESS PERIOD

 REUSING RCHS FROM LAST STRESS PERIOD


  VOLUME BUDGET FOR ENTIRE MODEL AT END OF TIME STEP    1, STRESS PERIOD  82
  ---------------------------------------------------------------------------------------------------

     CUMULATIVE VOLUME      L**3       RATES FOR THIS TIME STEP      L**3/T          PACKAGE NAME    
     ------------------                 ------------------------                     ----------------

           IN:                                      IN:
           ---                                      ---
              STO-SS =           0.0000                STO-SS =           0.0000     STORAGE         
              STO-SY =  1760971688.2239                STO-SY =    15711454.5213     STORAGE         
                 WEL =           0.0000                   WEL =           0.0000     WEL_0           
                 DRN =           0.0000                   DRN =           0.0000     DRN_0           
                 RCH =  6061577337.6950                   RCH =    96967019.3854     RCH_0           

            TOTAL IN =  7822549025.9190              TOTAL IN =   112678473.9067

          OUT:                                     OUT:
          ----                                     ----
              STO-SS =           0.0000                STO-SS =           0.0000     STORAGE         
              STO-SY =  2022510614.6229                STO-SY =    27268573.5024     STORAGE         
                 WEL =   831418568.2181                   WEL =     3909210.3913     WEL_0           
                 DRN =  4968619587.7718                   DRN =    81500644.8737     DRN_0           
                 RCH =           0.0000                   RCH =           0.0000     RCH_0           

           TOTAL OUT =  7822548770.6129             TOTAL OUT =   112678428.7674

            IN - OUT =         255.3061              IN - OUT =          45.1393

 PERCENT DISCREPANCY =           0.00     PERCENT DISCREPANCY =           0.00




         TIME SUMMARY AT END OF TIME STEP    1 IN STRESS PERIOD   82
                          TIME STEP LENGTH =    1.00000    
                        STRESS PERIOD TIME =    1.00000    
                     TOTAL SIMULATION TIME =    82.0000    

end timestep


start timestep kper="83" kstp="1" mode="normal"


 OUTPUT CONTROL FOR STRESS PERIOD 83 IS REPEATED USING SETTINGS FROM A PREVIOUS STRESS PERIOD.


 STRESS PERIOD 83 IS TRANSIENT


 REUSING WELS FROM LAST STRESS PERIOD

 REUSING DRNS FROM LAST STRESS PERIOD

 REUSING RCHS FROM LAST STRESS PERIOD


  VOLUME BUDGET FOR ENTIRE MODEL AT END OF TIME STEP    1, STRESS PERIOD  83
  ---------------------------------------------------------------------------------------------------

     CUMULATIVE VOLUME      L**3       RATES FOR THIS TIME STEP      L**3/T          PACKAGE NAME    
     ------------------                 ------------------------                     ----------------

           IN:                                      IN:
           ---                                      ---
              STO-SS =           0.0000                STO-SS =           0.0000     STORAGE         
              STO-SY =  1776646254.2326                STO-SY =    15674566.0086     STORAGE         
                 WEL =           0.0000                   WEL =           0.0000     WEL_0           
                 DRN =           0.0000                   DRN =           0.0000     DRN_0           
                 RCH =  6139870178.3691                   RCH =    78292840.6741     RCH_0           

            TOTAL IN =  7916516432.6017              TOTAL IN =    93967406.6827

          OUT:                                     OUT:
          ----                                     ----
              STO-SS =           0.0000                STO-SS =           0.0000     STORAGE         
              STO-SY =  2040815797.9775                STO-SY =    18305183.3546     STORAGE         
                 WEL =   835550788.9560                   WEL =     4132220.7379     WEL_0           
                 DRN =  5040149585.4723                   DRN =    71529997.7005     DRN_0           
                 RCH =           0.0000                   RCH =           0.0000     RCH_0           

           TOTAL OUT =  7916516172.4058             TOTAL OUT =    93967401.7930

            IN - OUT =         260.1959              IN - OUT =           4.8898

 PERCENT DISCREPANCY =           0.00     PERCENT DISCREPANCY =           0.00




         TIME SUMMARY AT END OF TIME STEP    1 IN STRESS PERIOD   83
                          TIME STEP LENGTH =    1.00000    
                        STRESS PERIOD TIME =    1.00000    
                     TOTAL SIMULATION TIME =    83.0000    

end timestep


start timestep kper="84" kstp="1" mode="normal"


 OUTPUT CONTROL FOR STRESS PERIOD 84 IS REPEATED USING SETTINGS FROM A PREVIOUS STRESS PERIOD.


 STRESS PERIOD 84 IS TRANSIENT


 REUSING WELS FROM LAST STRESS PERIOD

 REUSING DRNS FROM LAST STRESS PERIOD

 REUSING RCHS FROM LAST STRESS PERIOD


  VOLUME BUDGET FOR ENTIRE MODEL AT END OF TIME STEP    1, STRESS PERIOD  84
  ---------------------------------------------------------------------------------------------------

     CUMULATIVE VOLUME      L**3       RATES FOR THIS TIME STEP      L**3/T          PACKAGE NAME    
     ------------------                 ------------------------                     ----------------

           IN:                                      IN:
           ---                                      ---
              STO-SS =           0.0000                STO-SS =           0.0000     STORAGE         
              STO-SY =  1786957681.4038                STO-SY =    10311427.1712     STORAGE         
                 WEL =           0.0000                   WEL =           0.0000     WEL_0           
                 DRN =           0.0000                   DRN =           0.0000     DRN_0           
                 RCH =  6249839816.1109                   RCH =   109969637.7418     RCH_0           

            TOTAL IN =  8036797497.5147              TOTAL IN =   120281064.9130

          OUT:                                     OUT:
          ----                                     ----
              STO-SS =           0.0000                STO-SS =           0.0000     STORAGE         
              STO-SY =  2073225575.6115                STO-SY =    32409777.6340     STORAGE         
                 WEL =   839653510.4362                   WEL =     4102721.4802     WEL_0           
                 DRN =  5123918144.7253                   DRN =    83768559.2530     DRN_0           
                 RCH =           0.0000                   RCH =           0.0000     RCH_0           

           TOTAL OUT =  8036797230.7731             TOTAL OUT =   120281058.3672

            IN - OUT =         266.7416              IN - OUT =           6.5458

 PERCENT DISCREPANCY =           0.00     PERCENT DISCREPANCY =           0.00




         TIME SUMMARY AT END OF TIME STEP    1 IN STRESS PERIOD   84
                          TIME STEP LENGTH =    1.00000    
                        STRESS PERIOD TIME =    1.00000    
                     TOTAL SIMULATION TIME =    84.0000    

end timestep


start timestep kper="85" kstp="1" mode="normal"


 OUTPUT CONTROL FOR STRESS PERIOD 85 IS REPEATED USING SETTINGS FROM A PREVIOUS STRESS PERIOD.


 STRESS PERIOD 85 IS TRANSIENT


 REUSING WELS FROM LAST STRESS PERIOD

 REUSING DRNS FROM LAST STRESS PERIOD

 REUSING RCHS FROM LAST STRESS PERIOD


  VOLUME BUDGET FOR ENTIRE MODEL AT END OF TIME STEP    1, STRESS PERIOD  85
  ---------------------------------------------------------------------------------------------------

     CUMULATIVE VOLUME      L**3       RATES FOR THIS TIME STEP      L**3/T          PACKAGE NAME    
     ------------------                 ------------------------                     ----------------

           IN:                                      IN:
           ---                                      ---
              STO-SS =           0.0000                STO-SS =           0.0000     STORAGE         
              STO-SY =  1792763735.7081                STO-SY =     5806054.3043     STORAGE         
                 WEL =           0.0000                   WEL =           0.0000     WEL_0           
                 DRN =           0.0000                   DRN =           0.0000     DRN_0           
                 RCH =  6389115457.4914                   RCH =   139275641.3805     RCH_0           

            TOTAL IN =  8181879193.1995              TOTAL IN =   145081695.6848

          OUT:                                     OUT:
          ----                                     ----
              STO-SS =           0.0000                STO-SS =           0.0000     STORAGE         
              STO-SY =  2123353907.4727                STO-SY =    50128331.8611     STORAGE         
                 WEL =   843501476.7850                   WEL =     3847966.3488     WEL_0           
                 DRN =  5215023534.5174                   DRN =    91105389.7921     DRN_0           
                 RCH =           0.0000                   RCH =           0.0000     RCH_0           

           TOTAL OUT =  8181878918.7751             TOTAL OUT =   145081688.0020

            IN - OUT =         274.4244              IN - OUT =           7.6828

 PERCENT DISCREPANCY =           0.00     PERCENT DISCREPANCY =           0.00




         TIME SUMMARY AT END OF TIME STEP    1 IN STRESS PERIOD   85
                          TIME STEP LENGTH =    1.00000    
                        STRESS PERIOD TIME =    1.00000    
                     TOTAL SIMULATION TIME =    85.0000    

end timestep


start timestep kper="86" kstp="1" mode="normal"


 OUTPUT CONTROL FOR STRESS PERIOD 86 IS REPEATED USING SETTINGS FROM A PREVIOUS STRESS PERIOD.


 STRESS PERIOD 86 IS TRANSIENT


 REUSING WELS FROM LAST STRESS PERIOD

 REUSING DRNS FROM LAST STRESS PERIOD

 REUSING RCHS FROM LAST STRESS PERIOD


  VOLUME BUDGET FOR ENTIRE MODEL AT END OF TIME STEP    1, STRESS PERIOD  86
  ---------------------------------------------------------------------------------------------------

     CUMULATIVE VOLUME      L**3       RATES FOR THIS TIME STEP      L**3/T          PACKAGE NAME    
     ------------------                 ------------------------                     ----------------

           IN:                                      IN:
           ---                                      ---
              STO-SS =           0.0000                STO-SS =           0.0000     STORAGE         
              STO-SY =  1808380583.9573                STO-SY =    15616848.2492     STORAGE         
                 WEL =           0.0000                   WEL =           0.0000     WEL_0           
                 DRN =           0.0000                   DRN =           0.0000     DRN_0           
                 RCH =  6470120487.6488                   RCH =    81005030.1574     RCH_0           

            TOTAL IN =  8278501071.6060              TOTAL IN =    96621878.4066

          OUT:                                     OUT:
          ----                                     ----
              STO-SS =           0.0000                STO-SS =           0.0000     STORAGE         
              STO-SY =  2134858342.1050                STO-SY =    11504434.6323     STORAGE         
                 WEL =   847640464.8090                   WEL =     4138988.0240     WEL_0           
                 DRN =  5296001982.1159                   DRN =    80978447.5986     DRN_0           
                 RCH =           0.0000                   RCH =           0.0000     RCH_0           

           TOTAL OUT =  8278500789.0299             TOTAL OUT =    96621870.2549

            IN - OUT =         282.5761              IN - OUT =           8.1517

 PERCENT DISCREPANCY =           0.00     PERCENT DISCREPANCY =           0.00




         TIME SUMMARY AT END OF TIME STEP    1 IN STRESS PERIOD   86
                          TIME STEP LENGTH =    1.00000    
                        STRESS PERIOD TIME =    1.00000    
                     TOTAL SIMULATION TIME =    86.0000    

end timestep


start timestep kper="87" kstp="1" mode="normal"


 OUTPUT CONTROL FOR STRESS PERIOD 87 IS REPEATED USING SETTINGS FROM A PREVIOUS STRESS PERIOD.


 STRESS PERIOD 87 IS TRANSIENT


 REUSING WELS FROM LAST STRESS PERIOD

 REUSING DRNS FROM LAST STRESS PERIOD

 REUSING RCHS FROM LAST STRESS PERIOD


  VOLUME BUDGET FOR ENTIRE MODEL AT END OF TIME STEP    1, STRESS PERIOD  87
  ---------------------------------------------------------------------------------------------------

     CUMULATIVE VOLUME      L**3       RATES FOR THIS TIME STEP      L**3/T          PACKAGE NAME    
     ------------------                 ------------------------                     ----------------

           IN:                                      IN:
           ---                                      ---
              STO-SS =           0.0000                STO-SS =           0.0000     STORAGE         
              STO-SY =  1812964791.7817                STO-SY =     4584207.8244     STORAGE         
                 WEL =           0.0000                   WEL =           0.0000     WEL_0           
                 DRN =           0.0000                   DRN =           0.0000     DRN_0           
                 RCH =  6674829585.5766                   RCH =   204709097.9278     RCH_0           

            TOTAL IN =  8487794377.3583              TOTAL IN =   209293305.7522

          OUT:                                     OUT:
          ----                                     ----
              STO-SS =           0.0000                STO-SS =           0.0000     STORAGE         
              STO-SY =  2215521969.2780                STO-SY =    80663627.1731     STORAGE         
                 WEL =   850848510.6168                   WEL =     3208045.8078     WEL_0           
                 DRN =  5421423628.7312                   DRN =   125421646.6153     DRN_0           
                 RCH =           0.0000                   RCH =           0.0000     RCH_0           

           TOTAL OUT =  8487794108.6261             TOTAL OUT =   209293319.5962

            IN - OUT =         268.7322              IN - OUT =         -13.8439

 PERCENT DISCREPANCY =           0.00     PERCENT DISCREPANCY =          -0.00




         TIME SUMMARY AT END OF TIME STEP    1 IN STRESS PERIOD   87
                          TIME STEP LENGTH =    1.00000    
                        STRESS PERIOD TIME =    1.00000    
                     TOTAL SIMULATION TIME =    87.0000    

end timestep


start timestep kper="88" kstp="1" mode="normal"


 OUTPUT CONTROL FOR STRESS PERIOD 88 IS REPEATED USING SETTINGS FROM A PREVIOUS STRESS PERIOD.


 STRESS PERIOD 88 IS TRANSIENT


 REUSING WELS FROM LAST STRESS PERIOD

 REUSING DRNS FROM LAST STRESS PERIOD

 REUSING RCHS FROM LAST STRESS PERIOD


  VOLUME BUDGET FOR ENTIRE MODEL AT END OF TIME STEP    1, STRESS PERIOD  88
  ---------------------------------------------------------------------------------------------------

     CUMULATIVE VOLUME      L**3       RATES FOR THIS TIME STEP      L**3/T          PACKAGE NAME    
     ------------------                 ------------------------                     ----------------

           IN:                                      IN:
           ---                                      ---
              STO-SS =           0.0000                STO-SS =           0.0000     STORAGE         
              STO-SY =  1823890627.8152                STO-SY =    10925836.0335     STORAGE         
                 WEL =           0.0000                   WEL =           0.0000     WEL_0           
                 DRN =           0.0000                   DRN =           0.0000     DRN_0           
                 RCH =  6855381950.1273                   RCH =   180552364.5508     RCH_0           

            TOTAL IN =  8679272577.9426              TOTAL IN =   191478200.5843

          OUT:                                     OUT:
          ----                                     ----
              STO-SS =           0.0000                STO-SS =           0.0000     STORAGE         
              STO-SY =  2278170244.0869                STO-SY =    62648274.8089     STORAGE         
                 WEL =   854108977.5510                   WEL =     3260466.9341     WEL_0           
                 DRN =  5546993070.5500                   DRN =   125569441.8188     DRN_0           
                 RCH =           0.0000                   RCH =           0.0000     RCH_0           

           TOTAL OUT =  8679272292.1879             TOTAL OUT =   191478183.5618

            IN - OUT =         285.7547              IN - OUT =          17.0225

 PERCENT DISCREPANCY =           0.00     PERCENT DISCREPANCY =           0.00




         TIME SUMMARY AT END OF TIME STEP    1 IN STRESS PERIOD   88
                          TIME STEP LENGTH =    1.00000    
                        STRESS PERIOD TIME =    1.00000    
                     TOTAL SIMULATION TIME =    88.0000    

end timestep


start timestep kper="89" kstp="1" mode="normal"


 OUTPUT CONTROL FOR STRESS PERIOD 89 IS REPEATED USING SETTINGS FROM A PREVIOUS STRESS PERIOD.


 STRESS PERIOD 89 IS TRANSIENT


 REUSING WELS FROM LAST STRESS PERIOD

 REUSING DRNS FROM LAST STRESS PERIOD

 REUSING RCHS FROM LAST STRESS PERIOD


  VOLUME BUDGET FOR ENTIRE MODEL AT END OF TIME STEP    1, STRESS PERIOD  89
  ---------------------------------------------------------------------------------------------------

     CUMULATIVE VOLUME      L**3       RATES FOR THIS TIME STEP      L**3/T          PACKAGE NAME    
     ------------------                 ------------------------                     ----------------

           IN:                                      IN:
           ---                                      ---
              STO-SS =           0.0000                STO-SS =           0.0000     STORAGE         
              STO-SY =  1830951258.9071                STO-SY =     7060631.0919     STORAGE         
                 WEL =           0.0000                   WEL =           0.0000     WEL_0           
                 DRN =           0.0000                   DRN =           0.0000     DRN_0           
                 RCH =  7059753206.8117                   RCH =   204371256.6844     RCH_0           

            TOTAL IN =  8890704465.7188              TOTAL IN =   211431887.7763

          OUT:                                     OUT:
          ----                                     ----
              STO-SS =           0.0000                STO-SS =           0.0000     STORAGE         
              STO-SY =  2342812342.7936                STO-SY =    64642098.7067     STORAGE         
                 WEL =   857295696.8294                   WEL =     3186719.2785     WEL_0           
                 DRN =  5690596140.0873                   DRN =   143603069.5372     DRN_0           
                 RCH =           0.0000                   RCH =           0.0000     RCH_0           

           TOTAL OUT =  8890704179.7103             TOTAL OUT =   211431887.5224

            IN - OUT =         286.0086              IN - OUT =           0.2539

 PERCENT DISCREPANCY =           0.00     PERCENT DISCREPANCY =           0.00




         TIME SUMMARY AT END OF TIME STEP    1 IN STRESS PERIOD   89
                          TIME STEP LENGTH =    1.00000    
                        STRESS PERIOD TIME =    1.00000    
                     TOTAL SIMULATION TIME =    89.0000    

end timestep


start timestep kper="90" kstp="1" mode="normal"


 OUTPUT CONTROL FOR STRESS PERIOD 90 IS REPEATED USING SETTINGS FROM A PREVIOUS STRESS PERIOD.


 STRESS PERIOD 90 IS TRANSIENT


 REUSING WELS FROM LAST STRESS PERIOD

 REUSING DRNS FROM LAST STRESS PERIOD

 REUSING RCHS FROM LAST STRESS PERIOD


  VOLUME BUDGET FOR ENTIRE MODEL AT END OF TIME STEP    1, STRESS PERIOD  90
  ---------------------------------------------------------------------------------------------------

     CUMULATIVE VOLUME      L**3       RATES FOR THIS TIME STEP      L**3/T          PACKAGE NAME    
     ------------------                 ------------------------                     ----------------

           IN:                                      IN:
           ---                                      ---
              STO-SS =           0.0000                STO-SS =           0.0000     STORAGE         
              STO-SY =  1842801789.2437                STO-SY =    11850530.3365     STORAGE         
                 WEL =           0.0000                   WEL =           0.0000     WEL_0           
                 DRN =           0.0000                   DRN =           0.0000     DRN_0           
                 RCH =  7351002174.3713                   RCH =   291248967.5596     RCH_0           

            TOTAL IN =  9193803963.6150              TOTAL IN =   303099497.8961

          OUT:                                     OUT:
          ----                                     ----
              STO-SS =           0.0000                STO-SS =           0.0000     STORAGE         
              STO-SY =  2448960165.0323                STO-SY =   106147822.2387     STORAGE         
                 WEL =   860130227.7571                   WEL =     2834530.9277     WEL_0           
                 DRN =  5884713284.7525                   DRN =   194117144.6652     DRN_0           
                 RCH =           0.0000                   RCH =           0.0000     RCH_0           

           TOTAL OUT =  9193803677.5418             TOTAL OUT =   303099497.8316

            IN - OUT =         286.0731              IN - OUT =       6.4529E-02

 PERCENT DISCREPANCY =           0.00     PERCENT DISCREPANCY =           0.00




         TIME SUMMARY AT END OF TIME STEP    1 IN STRESS PERIOD   90
                          TIME STEP LENGTH =    1.00000    
                        STRESS PERIOD TIME =    1.00000    
                     TOTAL SIMULATION TIME =    90.0000    

end timestep


start timestep kper="91" kstp="1" mode="normal"


 OUTPUT CONTROL FOR STRESS PERIOD 91 IS REPEATED USING SETTINGS FROM A PREVIOUS STRESS PERIOD.


 STRESS PERIOD 91 IS TRANSIENT


 REUSING WELS FROM LAST STRESS PERIOD

 REUSING DRNS FROM LAST STRESS PERIOD

 REUSING RCHS FROM LAST STRESS PERIOD


  VOLUME BUDGET FOR ENTIRE MODEL AT END OF TIME STEP    1, STRESS PERIOD  91
  ---------------------------------------------------------------------------------------------------

     CUMULATIVE VOLUME      L**3       RATES FOR THIS TIME STEP      L**3/T          PACKAGE NAME    
     ------------------                 ------------------------                     ----------------

           IN:                                      IN:
           ---                                      ---
              STO-SS =           0.0000                STO-SS =           0.0000     STORAGE         
              STO-SY =  1858770689.5486                STO-SY =    15968900.3050     STORAGE         
                 WEL =           0.0000                   WEL =           0.0000     WEL_0           
                 DRN =           0.0000                   DRN =           0.0000     DRN_0           
                 RCH =  7489692236.5406                   RCH =   138690062.1693     RCH_0           

            TOTAL IN =  9348462926.0892              TOTAL IN =   154658962.4743

          OUT:                                     OUT:
          ----                                     ----
              STO-SS =           0.0000                STO-SS =           0.0000     STORAGE         
              STO-SY =  2487115513.2147                STO-SY =    38155348.1825     STORAGE         
                 WEL =   863155978.1589                   WEL =     3025750.4018     WEL_0           
                 DRN =  5998191245.4837                   DRN =   113477960.7312     DRN_0           
                 RCH =           0.0000                   RCH =           0.0000     RCH_0           

           TOTAL OUT =  9348462736.8573             TOTAL OUT =   154659059.3154

            IN - OUT =         189.2319              IN - OUT =         -96.8412

 PERCENT DISCREPANCY =           0.00     PERCENT DISCREPANCY =          -0.00




         TIME SUMMARY AT END OF TIME STEP    1 IN STRESS PERIOD   91
                          TIME STEP LENGTH =    1.00000    
                        STRESS PERIOD TIME =    1.00000    
                     TOTAL SIMULATION TIME =    91.0000    

end timestep


start timestep kper="92" kstp="1" mode="normal"


 OUTPUT CONTROL FOR STRESS PERIOD 92 IS REPEATED USING SETTINGS FROM A PREVIOUS STRESS PERIOD.


 STRESS PERIOD 92 IS TRANSIENT


 REUSING WELS FROM LAST STRESS PERIOD

 REUSING DRNS FROM LAST STRESS PERIOD

 REUSING RCHS FROM LAST STRESS PERIOD


  VOLUME BUDGET FOR ENTIRE MODEL AT END OF TIME STEP    1, STRESS PERIOD  92
  ---------------------------------------------------------------------------------------------------

     CUMULATIVE VOLUME      L**3       RATES FOR THIS TIME STEP      L**3/T          PACKAGE NAME    
     ------------------                 ------------------------                     ----------------

           IN:                                      IN:
           ---                                      ---
              STO-SS =           0.0000                STO-SS =           0.0000     STORAGE         
              STO-SY =  1875935810.8000                STO-SY =    17165121.2514     STORAGE         
                 WEL =           0.0000                   WEL =           0.0000     WEL_0           
                 DRN =           0.0000                   DRN =           0.0000     DRN_0           
                 RCH =  7621803646.3508                   RCH =   132111409.8102     RCH_0           

            TOTAL IN =  9497739457.1509              TOTAL IN =   149276531.0616

          OUT:                                     OUT:
          ----                                     ----
              STO-SS =           0.0000                STO-SS =           0.0000     STORAGE         
              STO-SY =  2520682334.2200                STO-SY =    33566821.0053     STORAGE         
                 WEL =   866369299.2493                   WEL =     3213321.0903     WEL_0           
                 DRN =  6110687587.4909                   DRN =   112496342.0072     DRN_0           
                 RCH =           0.0000                   RCH =           0.0000     RCH_0           

           TOTAL OUT =  9497739220.9601             TOTAL OUT =   149276484.1028

            IN - OUT =         236.1907              IN - OUT =          46.9588

 PERCENT DISCREPANCY =           0.00     PERCENT DISCREPANCY =           0.00




         TIME SUMMARY AT END OF TIME STEP    1 IN STRESS PERIOD   92
                          TIME STEP LENGTH =    1.00000    
                        STRESS PERIOD TIME =    1.00000    
                     TOTAL SIMULATION TIME =    92.0000    

end timestep


start timestep kper="93" kstp="1" mode="normal"


 OUTPUT CONTROL FOR STRESS PERIOD 93 IS REPEATED USING SETTINGS FROM A PREVIOUS STRESS PERIOD.


 STRESS PERIOD 93 IS TRANSIENT


 REUSING WELS FROM LAST STRESS PERIOD

 REUSING DRNS FROM LAST STRESS PERIOD

 REUSING RCHS FROM LAST STRESS PERIOD


  VOLUME BUDGET FOR ENTIRE MODEL AT END OF TIME STEP    1, STRESS PERIOD  93
  ---------------------------------------------------------------------------------------------------

     CUMULATIVE VOLUME      L**3       RATES FOR THIS TIME STEP      L**3/T          PACKAGE NAME    
     ------------------                 ------------------------                     ----------------

           IN:                                      IN:
           ---                                      ---
              STO-SS =           0.0000                STO-SS =           0.0000     STORAGE         
              STO-SY =  1881639919.7865                STO-SY =     5704108.9864     STORAGE         
                 WEL =           0.0000                   WEL =           0.0000     WEL_0           
                 DRN =           0.0000                   DRN =           0.0000     DRN_0           
                 RCH =  7809534489.5700                   RCH =   187730843.2192     RCH_0           

            TOTAL IN =  9691174409.3564              TOTAL IN =   193434952.2056

          OUT:                                     OUT:
          ----                                     ----
              STO-SS =           0.0000                STO-SS =           0.0000     STORAGE         
              STO-SY =  2572083817.6628                STO-SY =    51401483.4428     STORAGE         
                 WEL =   869534391.1614                   WEL =     3165091.9121     WEL_0           
                 DRN =  6249555949.2741                   DRN =   138868361.7832     DRN_0           
                 RCH =           0.0000                   RCH =           0.0000     RCH_0           

           TOTAL OUT =  9691174158.0983             TOTAL OUT =   193434937.1382

            IN - OUT =         251.2582              IN - OUT =          15.0674

 PERCENT DISCREPANCY =           0.00     PERCENT DISCREPANCY =           0.00




         TIME SUMMARY AT END OF TIME STEP    1 IN STRESS PERIOD   93
                          TIME STEP LENGTH =    1.00000    
                        STRESS PERIOD TIME =    1.00000    
                     TOTAL SIMULATION TIME =    93.0000    

end timestep


start timestep kper="94" kstp="1" mode="normal"


 OUTPUT CONTROL FOR STRESS PERIOD 94 IS REPEATED USING SETTINGS FROM A PREVIOUS STRESS PERIOD.


 STRESS PERIOD 94 IS TRANSIENT


 REUSING WELS FROM LAST STRESS PERIOD

 REUSING DRNS FROM LAST STRESS PERIOD

 REUSING RCHS FROM LAST STRESS PERIOD


  VOLUME BUDGET FOR ENTIRE MODEL AT END OF TIME STEP    1, STRESS PERIOD  94
  ---------------------------------------------------------------------------------------------------

     CUMULATIVE VOLUME      L**3       RATES FOR THIS TIME STEP      L**3/T          PACKAGE NAME    
     ------------------                 ------------------------                     ----------------

           IN:                                      IN:
           ---                                      ---
              STO-SS =           0.0000                STO-SS =           0.0000     STORAGE         
              STO-SY =  1898251863.9875                STO-SY =    16611944.2010     STORAGE         
                 WEL =           0.0000                   WEL =           0.0000     WEL_0           
                 DRN =           0.0000                   DRN =           0.0000     DRN_0           
                 RCH =  7934295445.3946                   RCH =   124760955.8246     RCH_0           

            TOTAL IN =  9832547309.3821              TOTAL IN =   141372900.0256

          OUT:                                     OUT:
          ----                                     ----
              STO-SS =           0.0000                STO-SS =           0.0000     STORAGE         
              STO-SY =  2593759904.9039                STO-SY =    21676087.2411     STORAGE         
                 WEL =   872928996.0553                   WEL =     3394604.8939     WEL_0           
                 DRN =  6365858077.7824                   DRN =   116302128.5083     DRN_0           
                 RCH =           0.0000                   RCH =           0.0000     RCH_0           

           TOTAL OUT =  9832546978.7415             TOTAL OUT =   141372820.6433

            IN - OUT =         330.6405              IN - OUT =          79.3824

 PERCENT DISCREPANCY =           0.00     PERCENT DISCREPANCY =           0.00




         TIME SUMMARY AT END OF TIME STEP    1 IN STRESS PERIOD   94
                          TIME STEP LENGTH =    1.00000    
                        STRESS PERIOD TIME =    1.00000    
                     TOTAL SIMULATION TIME =    94.0000    

end timestep


start timestep kper="95" kstp="1" mode="normal"


 OUTPUT CONTROL FOR STRESS PERIOD 95 IS REPEATED USING SETTINGS FROM A PREVIOUS STRESS PERIOD.


 STRESS PERIOD 95 IS TRANSIENT


 REUSING WELS FROM LAST STRESS PERIOD

 REUSING DRNS FROM LAST STRESS PERIOD

 REUSING RCHS FROM LAST STRESS PERIOD


  VOLUME BUDGET FOR ENTIRE MODEL AT END OF TIME STEP    1, STRESS PERIOD  95
  ---------------------------------------------------------------------------------------------------

     CUMULATIVE VOLUME      L**3       RATES FOR THIS TIME STEP      L**3/T          PACKAGE NAME    
     ------------------                 ------------------------                     ----------------

           IN:                                      IN:
           ---                                      ---
              STO-SS =           0.0000                STO-SS =           0.0000     STORAGE         
              STO-SY =  1905207826.5481                STO-SY =     6955962.5606     STORAGE         
                 WEL =           0.0000                   WEL =           0.0000     WEL_0           
                 DRN =           0.0000                   DRN =           0.0000     DRN_0           
                 RCH =  8483949167.7470                   RCH =   549653722.3524     RCH_0           

            TOTAL IN = 10389156994.2950              TOTAL IN =   556609684.9130

          OUT:                                     OUT:
          ----                                     ----
              STO-SS =           0.0000                STO-SS =           0.0000     STORAGE         
              STO-SY =  2773191229.4257                STO-SY =   179431324.5218     STORAGE         
                 WEL =   875182622.2828                   WEL =     2253626.2275     WEL_0           
                 DRN =  6740782804.9628                   DRN =   374924727.1804     DRN_0           
                 RCH =           0.0000                   RCH =           0.0000     RCH_0           

           TOTAL OUT = 10389156656.6712             TOTAL OUT =   556609677.9297

            IN - OUT =         337.6238              IN - OUT =           6.9833

 PERCENT DISCREPANCY =           0.00     PERCENT DISCREPANCY =           0.00




         TIME SUMMARY AT END OF TIME STEP    1 IN STRESS PERIOD   95
                          TIME STEP LENGTH =    1.00000    
                        STRESS PERIOD TIME =    1.00000    
                     TOTAL SIMULATION TIME =    95.0000    

end timestep


start timestep kper="96" kstp="1" mode="normal"


 OUTPUT CONTROL FOR STRESS PERIOD 96 IS REPEATED USING SETTINGS FROM A PREVIOUS STRESS PERIOD.


 STRESS PERIOD 96 IS TRANSIENT


 REUSING WELS FROM LAST STRESS PERIOD

 REUSING DRNS FROM LAST STRESS PERIOD

 REUSING RCHS FROM LAST STRESS PERIOD


  VOLUME BUDGET FOR ENTIRE MODEL AT END OF TIME STEP    1, STRESS PERIOD  96
  ---------------------------------------------------------------------------------------------------

     CUMULATIVE VOLUME      L**3       RATES FOR THIS TIME STEP      L**3/T          PACKAGE NAME    
     ------------------                 ------------------------                     ----------------

           IN:                                      IN:
           ---                                      ---
              STO-SS =           0.0000                STO-SS =           0.0000     STORAGE         
              STO-SY =  1929239237.8291                STO-SY =    24031411.2810     STORAGE         
                 WEL =           0.0000                   WEL =           0.0000     WEL_0           
                 DRN =           0.0000                   DRN =           0.0000     DRN_0           
                 RCH =  8616094537.4703                   RCH =   132145369.7234     RCH_0           

            TOTAL IN = 10545333775.2994              TOTAL IN =   156176781.0043

          OUT:                                     OUT:
          ----                                     ----
              STO-SS =           0.0000                STO-SS =           0.0000     STORAGE         
              STO-SY =  2795134548.3452                STO-SY =    21943318.9195     STORAGE         
                 WEL =   877936615.4262                   WEL =     2753993.1434     WEL_0           
                 DRN =  6872262073.9682                   DRN =   131479269.0054     DRN_0           
                 RCH =           0.0000                   RCH =           0.0000     RCH_0           

           TOTAL OUT = 10545333237.7395             TOTAL OUT =   156176581.0683

            IN - OUT =         537.5599              IN - OUT =         199.9361

 PERCENT DISCREPANCY =           0.00     PERCENT DISCREPANCY =           0.00




         TIME SUMMARY AT END OF TIME STEP    1 IN STRESS PERIOD   96
                          TIME STEP LENGTH =    1.00000    
                        STRESS PERIOD TIME =    1.00000    
                     TOTAL SIMULATION TIME =    96.0000    

end timestep


start timestep kper="97" kstp="1" mode="normal"


 OUTPUT CONTROL FOR STRESS PERIOD 97 IS REPEATED USING SETTINGS FROM A PREVIOUS STRESS PERIOD.


 STRESS PERIOD 97 IS TRANSIENT


 REUSING WELS FROM LAST STRESS PERIOD

 REUSING DRNS FROM LAST STRESS PERIOD

 REUSING RCHS FROM LAST STRESS PERIOD


  VOLUME BUDGET FOR ENTIRE MODEL AT END OF TIME STEP    1, STRESS PERIOD  97
  ---------------------------------------------------------------------------------------------------

     CUMULATIVE VOLUME      L**3       RATES FOR THIS TIME STEP      L**3/T          PACKAGE NAME    
     ------------------                 ------------------------                     ----------------

           IN:                                      IN:
           ---                                      ---
              STO-SS =           0.0000                STO-SS =           0.0000     STORAGE         
              STO-SY =  1948897018.1378                STO-SY =    19657780.3088     STORAGE         
                 WEL =           0.0000                   WEL =           0.0000     WEL_0           
                 DRN =           0.0000                   DRN =           0.0000     DRN_0           
                 RCH =  8728109608.7953                   RCH =   112015071.3250     RCH_0           

            TOTAL IN = 10677006626.9331              TOTAL IN =   131672851.6337

          OUT:                                     OUT:
          ----                                     ----
              STO-SS =           0.0000                STO-SS =           0.0000     STORAGE         
              STO-SY =  2808803023.1813                STO-SY =    13668474.8361     STORAGE         
                 WEL =   881147034.0241                   WEL =     3210418.5979     WEL_0           
                 DRN =  6987055962.9020                   DRN =   114793888.9338     DRN_0           
                 RCH =           0.0000                   RCH =           0.0000     RCH_0           

           TOTAL OUT = 10677006020.1074             TOTAL OUT =   131672782.3679

            IN - OUT =         606.8258              IN - OUT =          69.2659

 PERCENT DISCREPANCY =           0.00     PERCENT DISCREPANCY =           0.00




         TIME SUMMARY AT END OF TIME STEP    1 IN STRESS PERIOD   97
                          TIME STEP LENGTH =    1.00000    
                        STRESS PERIOD TIME =    1.00000    
                     TOTAL SIMULATION TIME =    97.0000    

end timestep


start timestep kper="98" kstp="1" mode="normal"


 OUTPUT CONTROL FOR STRESS PERIOD 98 IS REPEATED USING SETTINGS FROM A PREVIOUS STRESS PERIOD.


 STRESS PERIOD 98 IS TRANSIENT


 REUSING WELS FROM LAST STRESS PERIOD

 REUSING DRNS FROM LAST STRESS PERIOD

 REUSING RCHS FROM LAST STRESS PERIOD


  VOLUME BUDGET FOR ENTIRE MODEL AT END OF TIME STEP    1, STRESS PERIOD  98
  ---------------------------------------------------------------------------------------------------

     CUMULATIVE VOLUME      L**3       RATES FOR THIS TIME STEP      L**3/T          PACKAGE NAME    
     ------------------                 ------------------------                     ----------------

           IN:                                      IN:
           ---                                      ---
              STO-SS =           0.0000                STO-SS =           0.0000     STORAGE         
              STO-SY =  1965083783.5002                STO-SY =    16186765.3623     STORAGE         
                 WEL =           0.0000                   WEL =           0.0000     WEL_0           
                 DRN =           0.0000                   DRN =           0.0000     DRN_0           
                 RCH =  8849407530.6170                   RCH =   121297921.8217     RCH_0           

            TOTAL IN = 10814491314.1172              TOTAL IN =   137484687.1841

          OUT:                                     OUT:
          ----                                     ----
              STO-SS =           0.0000                STO-SS =           0.0000     STORAGE         
              STO-SY =  2822241892.3110                STO-SY =    13438869.1297     STORAGE         
                 WEL =   884807050.3040                   WEL =     3660016.2799     WEL_0           
                 DRN =  7107441698.7396                   DRN =   120385735.8376     DRN_0           
                 RCH =           0.0000                   RCH =           0.0000     RCH_0           

           TOTAL OUT = 10814490641.3545             TOTAL OUT =   137484621.2472

            IN - OUT =         672.7627              IN - OUT =          65.9369

 PERCENT DISCREPANCY =           0.00     PERCENT DISCREPANCY =           0.00




         TIME SUMMARY AT END OF TIME STEP    1 IN STRESS PERIOD   98
                          TIME STEP LENGTH =    1.00000    
                        STRESS PERIOD TIME =    1.00000    
                     TOTAL SIMULATION TIME =    98.0000    

end timestep


start timestep kper="99" kstp="1" mode="normal"


 OUTPUT CONTROL FOR STRESS PERIOD 99 IS REPEATED USING SETTINGS FROM A PREVIOUS STRESS PERIOD.


 STRESS PERIOD 99 IS TRANSIENT


 REUSING WELS FROM LAST STRESS PERIOD

 REUSING DRNS FROM LAST STRESS PERIOD

 REUSING RCHS FROM LAST STRESS PERIOD


  VOLUME BUDGET FOR ENTIRE MODEL AT END OF TIME STEP    1, STRESS PERIOD  99
  ---------------------------------------------------------------------------------------------------

     CUMULATIVE VOLUME      L**3       RATES FOR THIS TIME STEP      L**3/T          PACKAGE NAME    
     ------------------                 ------------------------                     ----------------

           IN:                                      IN:
           ---                                      ---
              STO-SS =           0.0000                STO-SS =           0.0000     STORAGE         
              STO-SY =  1975222088.9254                STO-SY =    10138305.4252     STORAGE         
                 WEL =           0.0000                   WEL =           0.0000     WEL_0           
                 DRN =           0.0000                   DRN =           0.0000     DRN_0           
                 RCH =  9006667555.0415                   RCH =   157260024.4245     RCH_0           

            TOTAL IN = 10981889643.9669              TOTAL IN =   167398329.8497

          OUT:                                     OUT:
          ----                                     ----
              STO-SS =           0.0000                STO-SS =           0.0000     STORAGE         
              STO-SY =  2851110444.2553                STO-SY =    28868551.9443     STORAGE         
                 WEL =   888342252.5781                   WEL =     3535202.2741     WEL_0           
                 DRN =  7242436237.5382                   DRN =   134994538.7986     DRN_0           
                 RCH =           0.0000                   RCH =           0.0000     RCH_0           

           TOTAL OUT = 10981888934.3715             TOTAL OUT =   167398293.0170

            IN - OUT =         709.5953              IN - OUT =          36.8327

 PERCENT DISCREPANCY =           0.00     PERCENT DISCREPANCY =           0.00




         TIME SUMMARY AT END OF TIME STEP    1 IN STRESS PERIOD   99
                          TIME STEP LENGTH =    1.00000    
                        STRESS PERIOD TIME =    1.00000    
                     TOTAL SIMULATION TIME =    99.0000    

end timestep


start timestep kper="100" kstp="1" mode="normal"


 OUTPUT CONTROL FOR STRESS PERIOD 100 IS REPEATED USING SETTINGS FROM A PREVIOUS STRESS PERIOD.


 STRESS PERIOD 100 IS TRANSIENT


 REUSING WELS FROM LAST STRESS PERIOD

 REUSING DRNS FROM LAST STRESS PERIOD

 REUSING RCHS FROM LAST STRESS PERIOD


  VOLUME BUDGET FOR ENTIRE MODEL AT END OF TIME STEP    1, STRESS PERIOD 100
  ---------------------------------------------------------------------------------------------------

     CUMULATIVE VOLUME      L**3       RATES FOR THIS TIME STEP      L**3/T          PACKAGE NAME    
     ------------------                 ------------------------                     ----------------

           IN:                                      IN:
           ---                                      ---
              STO-SS =           0.0000                STO-SS =           0.0000     STORAGE         
              STO-SY =  2003425621.2802                STO-SY =    28203532.3549     STORAGE         
                 WEL =           0.0000                   WEL =           0.0000     WEL_0           
                 DRN =           0.0000                   DRN =           0.0000     DRN_0           
                 RCH =  9097493821.1886                   RCH =    90826266.1471     RCH_0           

            TOTAL IN = 11100919442.4688              TOTAL IN =   119029798.5019

          OUT:                                     OUT:
          ----                                     ----
              STO-SS =           0.0000                STO-SS =           0.0000     STORAGE         
              STO-SY =  2858826954.8957                STO-SY =     7716510.6404     STORAGE         
                 WEL =   892397050.0726                   WEL =     4054797.4946     WEL_0           
                 DRN =  7349694655.6097                   DRN =   107258418.0715     DRN_0           
                 RCH =           0.0000                   RCH =           0.0000     RCH_0           

           TOTAL OUT = 11100918660.5780             TOTAL OUT =   119029726.2064

            IN - OUT =         781.8909              IN - OUT =          72.2955

 PERCENT DISCREPANCY =           0.00     PERCENT DISCREPANCY =           0.00




         TIME SUMMARY AT END OF TIME STEP    1 IN STRESS PERIOD  100
                          TIME STEP LENGTH =    1.00000    
                        STRESS PERIOD TIME =    1.00000    
                     TOTAL SIMULATION TIME =    100.000    

end timestep


start timestep kper="101" kstp="1" mode="normal"


 OUTPUT CONTROL FOR STRESS PERIOD 101 IS REPEATED USING SETTINGS FROM A PREVIOUS STRESS PERIOD.


 STRESS PERIOD 101 IS TRANSIENT


 REUSING WELS FROM LAST STRESS PERIOD

 REUSING DRNS FROM LAST STRESS PERIOD

 REUSING RCHS FROM LAST STRESS PERIOD


  VOLUME BUDGET FOR ENTIRE MODEL AT END OF TIME STEP    1, STRESS PERIOD 101
  ---------------------------------------------------------------------------------------------------

     CUMULATIVE VOLUME      L**3       RATES FOR THIS TIME STEP      L**3/T          PACKAGE NAME    
     ------------------                 ------------------------                     ----------------

           IN:                                      IN:
           ---                                      ---
              STO-SS =           0.0000                STO-SS =           0.0000     STORAGE         
              STO-SY =  2025390031.1055                STO-SY =    21964409.8253     STORAGE         
                 WEL =           0.0000                   WEL =           0.0000     WEL_0           
                 DRN =           0.0000                   DRN =           0.0000     DRN_0           
                 RCH =  9193976096.5909                   RCH =    96482275.4023     RCH_0           

            TOTAL IN = 11219366127.6964              TOTAL IN =   118446685.2276

          OUT:                                     OUT:
          ----                                     ----
              STO-SS =           0.0000                STO-SS =           0.0000     STORAGE         
              STO-SY =  2868909680.6825                STO-SY =    10082725.7868     STORAGE         
                 WEL =   896996793.0021                   WEL =     4599742.9295     WEL_0           
                 DRN =  7453458805.3579                   DRN =   103764149.7482     DRN_0           
                 RCH =           0.0000                   RCH =           0.0000     RCH_0           

           TOTAL OUT = 11219365279.0425             TOTAL OUT =   118446618.4645

            IN - OUT =         848.6539              IN - OUT =          66.7631

 PERCENT DISCREPANCY =           0.00     PERCENT DISCREPANCY =           0.00




         TIME SUMMARY AT END OF TIME STEP    1 IN STRESS PERIOD  101
                          TIME STEP LENGTH =    1.00000    
                        STRESS PERIOD TIME =    1.00000    
                     TOTAL SIMULATION TIME =    101.000    

end timestep


start timestep kper="102" kstp="1" mode="normal"


 OUTPUT CONTROL FOR STRESS PERIOD 102 IS REPEATED USING SETTINGS FROM A PREVIOUS STRESS PERIOD.


 STRESS PERIOD 102 IS TRANSIENT


 REUSING WELS FROM LAST STRESS PERIOD

 REUSING DRNS FROM LAST STRESS PERIOD

 REUSING RCHS FROM LAST STRESS PERIOD


  VOLUME BUDGET FOR ENTIRE MODEL AT END OF TIME STEP    1, STRESS PERIOD 102
  ---------------------------------------------------------------------------------------------------

     CUMULATIVE VOLUME      L**3       RATES FOR THIS TIME STEP      L**3/T          PACKAGE NAME    
     ------------------                 ------------------------                     ----------------

           IN:                                      IN:
           ---                                      ---
              STO-SS =           0.0000                STO-SS =           0.0000     STORAGE         
              STO-SY =  2051755709.2625                STO-SY =    26365678.1569     STORAGE         
                 WEL =           0.0000                   WEL =           0.0000     WEL_0           
                 DRN =           0.0000                   DRN =           0.0000     DRN_0           
                 RCH =  9280095317.9124                   RCH =    86119221.3215     RCH_0           

            TOTAL IN = 11331851027.1748              TOTAL IN =   112484899.4784

          OUT:                                     OUT:
          ----                                     ----
              STO-SS =           0.0000                STO-SS =           0.0000     STORAGE         
              STO-SY =  2875314153.9508                STO-SY =     6404473.2684     STORAGE         
                 WEL =   901750421.8825                   WEL =     4753628.8803     WEL_0           
                 DRN =  7554785562.6953                   DRN =   101326757.3375     DRN_0           
                 RCH =           0.0000                   RCH =           0.0000     RCH_0           

           TOTAL OUT = 11331850138.5286             TOTAL OUT =   112484859.4862

            IN - OUT =         888.6462              IN - OUT =          39.9923

 PERCENT DISCREPANCY =           0.00     PERCENT DISCREPANCY =           0.00




         TIME SUMMARY AT END OF TIME STEP    1 IN STRESS PERIOD  102
                          TIME STEP LENGTH =    1.00000    
                        STRESS PERIOD TIME =    1.00000    
                     TOTAL SIMULATION TIME =    102.000    

end timestep


start timestep kper="103" kstp="1" mode="normal"


 OUTPUT CONTROL FOR STRESS PERIOD 103 IS REPEATED USING SETTINGS FROM A PREVIOUS STRESS PERIOD.


 STRESS PERIOD 103 IS TRANSIENT


 REUSING WELS FROM LAST STRESS PERIOD

 REUSING DRNS FROM LAST STRESS PERIOD

 REUSING RCHS FROM LAST STRESS PERIOD


  VOLUME BUDGET FOR ENTIRE MODEL AT END OF TIME STEP    1, STRESS PERIOD 103
  ---------------------------------------------------------------------------------------------------

     CUMULATIVE VOLUME      L**3       RATES FOR THIS TIME STEP      L**3/T          PACKAGE NAME    
     ------------------                 ------------------------                     ----------------

           IN:                                      IN:
           ---                                      ---
              STO-SS =           0.0000                STO-SS =           0.0000     STORAGE         
              STO-SY =  2071982927.7692                STO-SY =    20227218.5067     STORAGE         
                 WEL =           0.0000                   WEL =           0.0000     WEL_0           
                 DRN =           0.0000                   DRN =           0.0000     DRN_0           
                 RCH =  9375008690.2721                   RCH =    94913372.3597     RCH_0           

            TOTAL IN = 11446991618.0413              TOTAL IN =   115140590.8664

          OUT:                                     OUT:
          ----                                     ----
              STO-SS =           0.0000                STO-SS =           0.0000     STORAGE         
              STO-SY =  2884645733.0566                STO-SY =     9331579.1057     STORAGE         
                 WEL =   906521605.7266                   WEL =     4771183.8441     WEL_0           
                 DRN =  7655823394.6627                   DRN =   101037831.9673     DRN_0           
                 RCH =           0.0000                   RCH =           0.0000     RCH_0           

           TOTAL OUT = 11446990733.4458             TOTAL OUT =   115140594.9171

            IN - OUT =         884.5955              IN - OUT =          -4.0507

 PERCENT DISCREPANCY =           0.00     PERCENT DISCREPANCY =          -0.00




         TIME SUMMARY AT END OF TIME STEP    1 IN STRESS PERIOD  103
                          TIME STEP LENGTH =    1.00000    
                        STRESS PERIOD TIME =    1.00000    
                     TOTAL SIMULATION TIME =    103.000    

end timestep


start timestep kper="104" kstp="1" mode="normal"


 OUTPUT CONTROL FOR STRESS PERIOD 104 IS REPEATED USING SETTINGS FROM A PREVIOUS STRESS PERIOD.


 STRESS PERIOD 104 IS TRANSIENT


 REUSING WELS FROM LAST STRESS PERIOD

 REUSING DRNS FROM LAST STRESS PERIOD

 REUSING RCHS FROM LAST STRESS PERIOD


  VOLUME BUDGET FOR ENTIRE MODEL AT END OF TIME STEP    1, STRESS PERIOD 104
  ---------------------------------------------------------------------------------------------------

     CUMULATIVE VOLUME      L**3       RATES FOR THIS TIME STEP      L**3/T          PACKAGE NAME    
     ------------------                 ------------------------                     ----------------

           IN:                                      IN:
           ---                                      ---
              STO-SS =           0.0000                STO-SS =           0.0000     STORAGE         
              STO-SY =  2099692822.4129                STO-SY =    27709894.6437     STORAGE         
                 WEL =           0.0000                   WEL =           0.0000     WEL_0           
                 DRN =           0.0000                   DRN =           0.0000     DRN_0           
                 RCH =  9453820973.0280                   RCH =    78812282.7559     RCH_0           

            TOTAL IN = 11553513795.4409              TOTAL IN =   106522177.3996

          OUT:                                     OUT:
          ----                                     ----
              STO-SS =           0.0000                STO-SS =           0.0000     STORAGE         
              STO-SY =  2890321535.1191                STO-SY =     5675802.0625     STORAGE         
                 WEL =   911590865.0766                   WEL =     5069259.3500     WEL_0           
                 DRN =  7751600495.7526                   DRN =    95777101.0899     DRN_0           
                 RCH =           0.0000                   RCH =           0.0000     RCH_0           

           TOTAL OUT = 11553512895.9483             TOTAL OUT =   106522162.5025

            IN - OUT =         899.4926              IN - OUT =          14.8971

 PERCENT DISCREPANCY =           0.00     PERCENT DISCREPANCY =           0.00




         TIME SUMMARY AT END OF TIME STEP    1 IN STRESS PERIOD  104
                          TIME STEP LENGTH =    1.00000    
                        STRESS PERIOD TIME =    1.00000    
                     TOTAL SIMULATION TIME =    104.000    

end timestep


start timestep kper="105" kstp="1" mode="normal"


 OUTPUT CONTROL FOR STRESS PERIOD 105 IS REPEATED USING SETTINGS FROM A PREVIOUS STRESS PERIOD.


 STRESS PERIOD 105 IS TRANSIENT


 REUSING WELS FROM LAST STRESS PERIOD

 REUSING DRNS FROM LAST STRESS PERIOD

 REUSING RCHS FROM LAST STRESS PERIOD


  VOLUME BUDGET FOR ENTIRE MODEL AT END OF TIME STEP    1, STRESS PERIOD 105
  ---------------------------------------------------------------------------------------------------

     CUMULATIVE VOLUME      L**3       RATES FOR THIS TIME STEP      L**3/T          PACKAGE NAME    
     ------------------                 ------------------------                     ----------------

           IN:                                      IN:
           ---                                      ---
              STO-SS =           0.0000                STO-SS =           0.0000     STORAGE         
              STO-SY =  2122995010.0000                STO-SY =    23302187.5871     STORAGE         
                 WEL =           0.0000                   WEL =           0.0000     WEL_0           
                 DRN =           0.0000                   DRN =           0.0000     DRN_0           
                 RCH =  9535605361.3622                   RCH =    81784388.3342     RCH_0           

            TOTAL IN = 11658600371.3622              TOTAL IN =   105086575.9213

          OUT:                                     OUT:
          ----                                     ----
              STO-SS =           0.0000                STO-SS =           0.0000     STORAGE         
              STO-SY =  2898218154.8707                STO-SY =     7896619.7516     STORAGE         
                 WEL =   916944589.6198                   WEL =     5353724.5432     WEL_0           
                 DRN =  7843436684.1431                   DRN =    91836188.3905     DRN_0           
                 RCH =           0.0000                   RCH =           0.0000     RCH_0           

           TOTAL OUT = 11658599428.6336             TOTAL OUT =   105086532.6853

            IN - OUT =         942.7286              IN - OUT =          43.2359

 PERCENT DISCREPANCY =           0.00     PERCENT DISCREPANCY =           0.00




         TIME SUMMARY AT END OF TIME STEP    1 IN STRESS PERIOD  105
                          TIME STEP LENGTH =    1.00000    
                        STRESS PERIOD TIME =    1.00000    
                     TOTAL SIMULATION TIME =    105.000    

end timestep


start timestep kper="106" kstp="1" mode="normal"


 OUTPUT CONTROL FOR STRESS PERIOD 106 IS REPEATED USING SETTINGS FROM A PREVIOUS STRESS PERIOD.


 STRESS PERIOD 106 IS TRANSIENT


 REUSING WELS FROM LAST STRESS PERIOD

 REUSING DRNS FROM LAST STRESS PERIOD

 REUSING RCHS FROM LAST STRESS PERIOD


  VOLUME BUDGET FOR ENTIRE MODEL AT END OF TIME STEP    1, STRESS PERIOD 106
  ---------------------------------------------------------------------------------------------------

     CUMULATIVE VOLUME      L**3       RATES FOR THIS TIME STEP      L**3/T          PACKAGE NAME    
     ------------------                 ------------------------                     ----------------

           IN:                                      IN:
           ---                                      ---
              STO-SS =           0.0000                STO-SS =           0.0000     STORAGE         
              STO-SY =  2148282596.1317                STO-SY =    25287586.1317     STORAGE         
                 WEL =           0.0000                   WEL =           0.0000     WEL_0           
                 DRN =           0.0000                   DRN =           0.0000     DRN_0           
                 RCH =  9615054636.4909                   RCH =    79449275.1287     RCH_0           

            TOTAL IN = 11763337232.6225              TOTAL IN =   104736861.2604

          OUT:                                     OUT:
          ----                                     ----
              STO-SS =           0.0000                STO-SS =           0.0000     STORAGE         
              STO-SY =  2904229363.1600                STO-SY =     6011208.2893     STORAGE         
                 WEL =   922420092.9127                   WEL =     5475503.2929     WEL_0           
                 DRN =  7936686799.9098                   DRN =    93250115.7667     DRN_0           
                 RCH =           0.0000                   RCH =           0.0000     RCH_0           

           TOTAL OUT = 11763336255.9825             TOTAL OUT =   104736827.3489

            IN - OUT =         976.6400              IN - OUT =          33.9114

 PERCENT DISCREPANCY =           0.00     PERCENT DISCREPANCY =           0.00




         TIME SUMMARY AT END OF TIME STEP    1 IN STRESS PERIOD  106
                          TIME STEP LENGTH =    1.00000    
                        STRESS PERIOD TIME =    1.00000    
                     TOTAL SIMULATION TIME =    106.000    

end timestep


start timestep kper="107" kstp="1" mode="normal"


 OUTPUT CONTROL FOR STRESS PERIOD 107 IS REPEATED USING SETTINGS FROM A PREVIOUS STRESS PERIOD.


 STRESS PERIOD 107 IS TRANSIENT


 REUSING WELS FROM LAST STRESS PERIOD

 REUSING DRNS FROM LAST STRESS PERIOD

 REUSING RCHS FROM LAST STRESS PERIOD


  VOLUME BUDGET FOR ENTIRE MODEL AT END OF TIME STEP    1, STRESS PERIOD 107
  ---------------------------------------------------------------------------------------------------

     CUMULATIVE VOLUME      L**3       RATES FOR THIS TIME STEP      L**3/T          PACKAGE NAME    
     ------------------                 ------------------------                     ----------------

           IN:                                      IN:
           ---                                      ---
              STO-SS =           0.0000                STO-SS =           0.0000     STORAGE         
              STO-SY =  2153930757.7110                STO-SY =     5648161.5793     STORAGE         
                 WEL =           0.0000                   WEL =           0.0000     WEL_0           
                 DRN =           0.0000                   DRN =           0.0000     DRN_0           
                 RCH =  9798381776.7356                   RCH =   183327140.2447     RCH_0           

            TOTAL IN = 11952312534.4466              TOTAL IN =   188975301.8240

          OUT:                                     OUT:
          ----                                     ----
              STO-SS =           0.0000                STO-SS =           0.0000     STORAGE         
              STO-SY =  2952228368.3249                STO-SY =    47999005.1649     STORAGE         
                 WEL =   926639151.8710                   WEL =     4219058.9583     WEL_0           
                 DRN =  8073444028.9816                   DRN =   136757229.0718     DRN_0           
                 RCH =           0.0000                   RCH =           0.0000     RCH_0           

           TOTAL OUT = 11952311549.1775             TOTAL OUT =   188975293.1949

            IN - OUT =         985.2691              IN - OUT =           8.6291

 PERCENT DISCREPANCY =           0.00     PERCENT DISCREPANCY =           0.00




         TIME SUMMARY AT END OF TIME STEP    1 IN STRESS PERIOD  107
                          TIME STEP LENGTH =    1.00000    
                        STRESS PERIOD TIME =    1.00000    
                     TOTAL SIMULATION TIME =    107.000    

end timestep


start timestep kper="108" kstp="1" mode="normal"


 OUTPUT CONTROL FOR STRESS PERIOD 108 IS REPEATED USING SETTINGS FROM A PREVIOUS STRESS PERIOD.


 STRESS PERIOD 108 IS TRANSIENT


 REUSING WELS FROM LAST STRESS PERIOD

 REUSING DRNS FROM LAST STRESS PERIOD

 REUSING RCHS FROM LAST STRESS PERIOD


  VOLUME BUDGET FOR ENTIRE MODEL AT END OF TIME STEP    1, STRESS PERIOD 108
  ---------------------------------------------------------------------------------------------------

     CUMULATIVE VOLUME      L**3       RATES FOR THIS TIME STEP      L**3/T          PACKAGE NAME    
     ------------------                 ------------------------                     ----------------

           IN:                                      IN:
           ---                                      ---
              STO-SS =           0.0000                STO-SS =           0.0000     STORAGE         
              STO-SY =  2183867634.3970                STO-SY =    29936876.6860     STORAGE         
                 WEL =           0.0000                   WEL =           0.0000     WEL_0           
                 DRN =           0.0000                   DRN =           0.0000     DRN_0           
                 RCH =  9876530412.7886                   RCH =    78148636.0531     RCH_0           

            TOTAL IN = 12060398047.1856              TOTAL IN =   108085512.7390

          OUT:                                     OUT:
          ----                                     ----
              STO-SS =           0.0000                STO-SS =           0.0000     STORAGE         
              STO-SY =  2958025179.3541                STO-SY =     5796811.0293     STORAGE         
                 WEL =   931335004.5521                   WEL =     4695852.6811     WEL_0           
                 DRN =  8171036509.0471                   DRN =    97592480.0655     DRN_0           
                 RCH =           0.0000                   RCH =           0.0000     RCH_0           

           TOTAL OUT = 12060396692.9534             TOTAL OUT =   108085143.7759

            IN - OUT =        1354.2322              IN - OUT =         368.9631

 PERCENT DISCREPANCY =           0.00     PERCENT DISCREPANCY =           0.00




         TIME SUMMARY AT END OF TIME STEP    1 IN STRESS PERIOD  108
                          TIME STEP LENGTH =    1.00000    
                        STRESS PERIOD TIME =    1.00000    
                     TOTAL SIMULATION TIME =    108.000    

end timestep


start timestep kper="109" kstp="1" mode="normal"


 OUTPUT CONTROL FOR STRESS PERIOD 109 IS REPEATED USING SETTINGS FROM A PREVIOUS STRESS PERIOD.


 STRESS PERIOD 109 IS TRANSIENT


 REUSING WELS FROM LAST STRESS PERIOD

 REUSING DRNS FROM LAST STRESS PERIOD

 REUSING RCHS FROM LAST STRESS PERIOD


  VOLUME BUDGET FOR ENTIRE MODEL AT END OF TIME STEP    1, STRESS PERIOD 109
  ---------------------------------------------------------------------------------------------------

     CUMULATIVE VOLUME      L**3       RATES FOR THIS TIME STEP      L**3/T          PACKAGE NAME    
     ------------------                 ------------------------                     ----------------

           IN:                                      IN:
           ---                                      ---
              STO-SS =           0.0000                STO-SS =           0.0000     STORAGE         
              STO-SY =  2207308074.6311                STO-SY =    23440440.2342     STORAGE         
                 WEL =           0.0000                   WEL =           0.0000     WEL_0           
                 DRN =           0.0000                   DRN =           0.0000     DRN_0           
                 RCH =  9958299479.4584                   RCH =    81769066.6698     RCH_0           

            TOTAL IN = 12165607554.0896              TOTAL IN =   105209506.9040

          OUT:                                     OUT:
          ----                                     ----
              STO-SS =           0.0000                STO-SS =           0.0000     STORAGE         
              STO-SY =  2966098799.2039                STO-SY =     8073619.8498     STORAGE         
                 WEL =   936212944.5947                   WEL =     4877940.0426     WEL_0           
                 DRN =  8263294436.5366                   DRN =    92257927.4895     DRN_0           
                 RCH =           0.0000                   RCH =           0.0000     RCH_0           

           TOTAL OUT = 12165606180.3353             TOTAL OUT =   105209487.3819

            IN - OUT =        1373.7543              IN - OUT =          19.5221

 PERCENT DISCREPANCY =           0.00     PERCENT DISCREPANCY =           0.00




         TIME SUMMARY AT END OF TIME STEP    1 IN STRESS PERIOD  109
                          TIME STEP LENGTH =    1.00000    
                        STRESS PERIOD TIME =    1.00000    
                     TOTAL SIMULATION TIME =    109.000    

end timestep


start timestep kper="110" kstp="1" mode="normal"


 OUTPUT CONTROL FOR STRESS PERIOD 110 IS REPEATED USING SETTINGS FROM A PREVIOUS STRESS PERIOD.


 STRESS PERIOD 110 IS TRANSIENT


 REUSING WELS FROM LAST STRESS PERIOD

 REUSING DRNS FROM LAST STRESS PERIOD

 REUSING RCHS FROM LAST STRESS PERIOD


  VOLUME BUDGET FOR ENTIRE MODEL AT END OF TIME STEP    1, STRESS PERIOD 110
  ---------------------------------------------------------------------------------------------------

     CUMULATIVE VOLUME      L**3       RATES FOR THIS TIME STEP      L**3/T          PACKAGE NAME    
     ------------------                 ------------------------                     ----------------

           IN:                                      IN:
           ---                                      ---
              STO-SS =           0.0000                STO-SS =           0.0000     STORAGE         
              STO-SY =  2234425413.1081                STO-SY =    27117338.4770     STORAGE         
                 WEL =           0.0000                   WEL =           0.0000     WEL_0           
                 DRN =           0.0000                   DRN =           0.0000     DRN_0           
                 RCH = 10031573334.1752                   RCH =    73273854.7167     RCH_0           

            TOTAL IN = 12265998747.2833              TOTAL IN =   100391193.1937

          OUT:                                     OUT:
          ----                                     ----
              STO-SS =           0.0000                STO-SS =           0.0000     STORAGE         
              STO-SY =  2971255440.6683                STO-SY =     5156641.4644     STORAGE         
                 WEL =   941336405.0424                   WEL =     5123460.4477     WEL_0           
                 DRN =  8353405441.3798                   DRN =    90111004.8432     DRN_0           
                 RCH =           0.0000                   RCH =           0.0000     RCH_0           

           TOTAL OUT = 12265997287.0906             TOTAL OUT =   100391106.7553

            IN - OUT =        1460.1927              IN - OUT =          86.4384

 PERCENT DISCREPANCY =           0.00     PERCENT DISCREPANCY =           0.00




         TIME SUMMARY AT END OF TIME STEP    1 IN STRESS PERIOD  110
                          TIME STEP LENGTH =    1.00000    
                        STRESS PERIOD TIME =    1.00000    
                     TOTAL SIMULATION TIME =    110.000    

end timestep


start timestep kper="111" kstp="1" mode="normal"


 OUTPUT CONTROL FOR STRESS PERIOD 111 IS REPEATED USING SETTINGS FROM A PREVIOUS STRESS PERIOD.


 STRESS PERIOD 111 IS TRANSIENT


 REUSING WELS FROM LAST STRESS PERIOD

 REUSING DRNS FROM LAST STRESS PERIOD

 REUSING RCHS FROM LAST STRESS PERIOD


  VOLUME BUDGET FOR ENTIRE MODEL AT END OF TIME STEP    1, STRESS PERIOD 111
  ---------------------------------------------------------------------------------------------------

     CUMULATIVE VOLUME      L**3       RATES FOR THIS TIME STEP      L**3/T          PACKAGE NAME    
     ------------------                 ------------------------                     ----------------

           IN:                                      IN:
           ---                                      ---
              STO-SS =           0.0000                STO-SS =           0.0000     STORAGE         
              STO-SY =  2260874325.5387                STO-SY =    26448912.4306     STORAGE         
                 WEL =           0.0000                   WEL =           0.0000     WEL_0           
                 DRN =           0.0000                   DRN =           0.0000     DRN_0           
                 RCH = 10100961561.5377                   RCH =    69388227.3625     RCH_0           

            TOTAL IN = 12361835887.0764              TOTAL IN =    95837139.7931

          OUT:                                     OUT:
          ----                                     ----
              STO-SS =           0.0000                STO-SS =           0.0000     STORAGE         
              STO-SY =  2977376406.7277                STO-SY =     6120966.0595     STORAGE         
                 WEL =   946780101.9747                   WEL =     5443696.9323     WEL_0           
                 DRN =  8437677857.4353                   DRN =    84272416.0554     DRN_0           
                 RCH =           0.0000                   RCH =           0.0000     RCH_0           

           TOTAL OUT = 12361834366.1377             TOTAL OUT =    95837079.0472

            IN - OUT =        1520.9387              IN - OUT =          60.7460

 PERCENT DISCREPANCY =           0.00     PERCENT DISCREPANCY =           0.00




         TIME SUMMARY AT END OF TIME STEP    1 IN STRESS PERIOD  111
                          TIME STEP LENGTH =    1.00000    
                        STRESS PERIOD TIME =    1.00000    
                     TOTAL SIMULATION TIME =    111.000    

end timestep


start timestep kper="112" kstp="1" mode="normal"


 OUTPUT CONTROL FOR STRESS PERIOD 112 IS REPEATED USING SETTINGS FROM A PREVIOUS STRESS PERIOD.


 STRESS PERIOD 112 IS TRANSIENT


 REUSING WELS FROM LAST STRESS PERIOD

 REUSING DRNS FROM LAST STRESS PERIOD

 REUSING RCHS FROM LAST STRESS PERIOD


  VOLUME BUDGET FOR ENTIRE MODEL AT END OF TIME STEP    1, STRESS PERIOD 112
  ---------------------------------------------------------------------------------------------------

     CUMULATIVE VOLUME      L**3       RATES FOR THIS TIME STEP      L**3/T          PACKAGE NAME    
     ------------------                 ------------------------                     ----------------

           IN:                                      IN:
           ---                                      ---
              STO-SS =           0.0000                STO-SS =           0.0000     STORAGE         
              STO-SY =  2286527228.1415                STO-SY =    25652902.6027     STORAGE         
                 WEL =           0.0000                   WEL =           0.0000     WEL_0           
                 DRN =           0.0000                   DRN =           0.0000     DRN_0           
                 RCH = 10172345771.4026                   RCH =    71384209.8649     RCH_0           

            TOTAL IN = 12458872999.5441              TOTAL IN =    97037112.4676

          OUT:                                     OUT:
          ----                                     ----
              STO-SS =           0.0000                STO-SS =           0.0000     STORAGE         
              STO-SY =  2982545311.1454                STO-SY =     5168904.4176     STORAGE         
                 WEL =   952381498.4238                   WEL =     5601396.4491     WEL_0           
                 DRN =  8523944633.9852                   DRN =    86266776.5500     DRN_0           
                 RCH =           0.0000                   RCH =           0.0000     RCH_0           

           TOTAL OUT = 12458871443.5544             TOTAL OUT =    97037077.4167

            IN - OUT =        1555.9896              IN - OUT =          35.0509

 PERCENT DISCREPANCY =           0.00     PERCENT DISCREPANCY =           0.00




         TIME SUMMARY AT END OF TIME STEP    1 IN STRESS PERIOD  112
                          TIME STEP LENGTH =    1.00000    
                        STRESS PERIOD TIME =    1.00000    
                     TOTAL SIMULATION TIME =    112.000    

end timestep


start timestep kper="113" kstp="1" mode="normal"


 OUTPUT CONTROL FOR STRESS PERIOD 113 IS REPEATED USING SETTINGS FROM A PREVIOUS STRESS PERIOD.


 STRESS PERIOD 113 IS TRANSIENT


 REUSING WELS FROM LAST STRESS PERIOD

 REUSING DRNS FROM LAST STRESS PERIOD

 REUSING RCHS FROM LAST STRESS PERIOD


  VOLUME BUDGET FOR ENTIRE MODEL AT END OF TIME STEP    1, STRESS PERIOD 113
  ---------------------------------------------------------------------------------------------------

     CUMULATIVE VOLUME      L**3       RATES FOR THIS TIME STEP      L**3/T          PACKAGE NAME    
     ------------------                 ------------------------                     ----------------

           IN:                                      IN:
           ---                                      ---
              STO-SS =           0.0000                STO-SS =           0.0000     STORAGE         
              STO-SY =  2312578511.7722                STO-SY =    26051283.6307     STORAGE         
                 WEL =           0.0000                   WEL =           0.0000     WEL_0           
                 DRN =           0.0000                   DRN =           0.0000     DRN_0           
                 RCH = 10238101389.5604                   RCH =    65755618.1578     RCH_0           

            TOTAL IN = 12550679901.3326              TOTAL IN =    91806901.7885

          OUT:                                     OUT:
          ----                                     ----
              STO-SS =           0.0000                STO-SS =           0.0000     STORAGE         
              STO-SY =  2988284349.0794                STO-SY =     5739037.9340     STORAGE         
                 WEL =   958117903.8008                   WEL =     5736405.3770     WEL_0           
                 DRN =  8604276075.8763                   DRN =    80331441.8911     DRN_0           
                 RCH =           0.0000                   RCH =           0.0000     RCH_0           

           TOTAL OUT = 12550678328.7565             TOTAL OUT =    91806885.2021

            IN - OUT =        1572.5761              IN - OUT =          16.5864

 PERCENT DISCREPANCY =           0.00     PERCENT DISCREPANCY =           0.00




         TIME SUMMARY AT END OF TIME STEP    1 IN STRESS PERIOD  113
                          TIME STEP LENGTH =    1.00000    
                        STRESS PERIOD TIME =    1.00000    
                     TOTAL SIMULATION TIME =    113.000    

end timestep


start timestep kper="114" kstp="1" mode="normal"


 OUTPUT CONTROL FOR STRESS PERIOD 114 IS REPEATED USING SETTINGS FROM A PREVIOUS STRESS PERIOD.


 STRESS PERIOD 114 IS TRANSIENT


 REUSING WELS FROM LAST STRESS PERIOD

 REUSING DRNS FROM LAST STRESS PERIOD

 REUSING RCHS FROM LAST STRESS PERIOD


  VOLUME BUDGET FOR ENTIRE MODEL AT END OF TIME STEP    1, STRESS PERIOD 114
  ---------------------------------------------------------------------------------------------------

     CUMULATIVE VOLUME      L**3       RATES FOR THIS TIME STEP      L**3/T          PACKAGE NAME    
     ------------------                 ------------------------                     ----------------

           IN:                                      IN:
           ---                                      ---
              STO-SS =           0.0000                STO-SS =           0.0000     STORAGE         
              STO-SY =  2340705085.4876                STO-SY =    28126573.7154     STORAGE         
                 WEL =           0.0000                   WEL =           0.0000     WEL_0           
                 DRN =           0.0000                   DRN =           0.0000     DRN_0           
                 RCH = 10300667735.1126                   RCH =    62566345.5522     RCH_0           

            TOTAL IN = 12641372820.6002              TOTAL IN =    90692919.2676

          OUT:                                     OUT:
          ----                                     ----
              STO-SS =           0.0000                STO-SS =           0.0000     STORAGE         
              STO-SY =  2992768358.6809                STO-SY =     4484009.6015     STORAGE         
                 WEL =   963955559.6428                   WEL =     5837655.8420     WEL_0           
                 DRN =  8684647279.7424                   DRN =    80371203.8661     DRN_0           
                 RCH =           0.0000                   RCH =           0.0000     RCH_0           

           TOTAL OUT = 12641371198.0660             TOTAL OUT =    90692869.3096

            IN - OUT =        1622.5341              IN - OUT =          49.9580

 PERCENT DISCREPANCY =           0.00     PERCENT DISCREPANCY =           0.00




         TIME SUMMARY AT END OF TIME STEP    1 IN STRESS PERIOD  114
                          TIME STEP LENGTH =    1.00000    
                        STRESS PERIOD TIME =    1.00000    
                     TOTAL SIMULATION TIME =    114.000    

end timestep


start timestep kper="115" kstp="1" mode="normal"


 OUTPUT CONTROL FOR STRESS PERIOD 115 IS REPEATED USING SETTINGS FROM A PREVIOUS STRESS PERIOD.


 STRESS PERIOD 115 IS TRANSIENT


 REUSING WELS FROM LAST STRESS PERIOD

 REUSING DRNS FROM LAST STRESS PERIOD

 REUSING RCHS FROM LAST STRESS PERIOD


  VOLUME BUDGET FOR ENTIRE MODEL AT END OF TIME STEP    1, STRESS PERIOD 115
  ---------------------------------------------------------------------------------------------------

     CUMULATIVE VOLUME      L**3       RATES FOR THIS TIME STEP      L**3/T          PACKAGE NAME    
     ------------------                 ------------------------                     ----------------

           IN:                                      IN:
           ---                                      ---
              STO-SS =           0.0000                STO-SS =           0.0000     STORAGE         
              STO-SY =  2367867893.6189                STO-SY =    27162808.1314     STORAGE         
                 WEL =           0.0000                   WEL =           0.0000     WEL_0           
                 DRN =           0.0000                   DRN =           0.0000     DRN_0           
                 RCH = 10358907941.5494                   RCH =    58240206.4368     RCH_0           

            TOTAL IN = 12726775835.1683              TOTAL IN =    85403014.5681

          OUT:                                     OUT:
          ----                                     ----
              STO-SS =           0.0000                STO-SS =           0.0000     STORAGE         
              STO-SY =  2998019707.4744                STO-SY =     5251348.7935     STORAGE         
                 WEL =   970004330.4873                   WEL =     6048770.8445     WEL_0           
                 DRN =  8758750116.9177                   DRN =    74102837.1753     DRN_0           
                 RCH =           0.0000                   RCH =           0.0000     RCH_0           

           TOTAL OUT = 12726774154.8794             TOTAL OUT =    85402956.8134

            IN - OUT =        1680.2889              IN - OUT =          57.7548

 PERCENT DISCREPANCY =           0.00     PERCENT DISCREPANCY =           0.00




         TIME SUMMARY AT END OF TIME STEP    1 IN STRESS PERIOD  115
                          TIME STEP LENGTH =    1.00000    
                        STRESS PERIOD TIME =    1.00000    
                     TOTAL SIMULATION TIME =    115.000    

end timestep


start timestep kper="116" kstp="1" mode="normal"


 OUTPUT CONTROL FOR STRESS PERIOD 116 IS REPEATED USING SETTINGS FROM A PREVIOUS STRESS PERIOD.


 STRESS PERIOD 116 IS TRANSIENT


 REUSING WELS FROM LAST STRESS PERIOD

 REUSING DRNS FROM LAST STRESS PERIOD

 REUSING RCHS FROM LAST STRESS PERIOD


  VOLUME BUDGET FOR ENTIRE MODEL AT END OF TIME STEP    1, STRESS PERIOD 116
  ---------------------------------------------------------------------------------------------------

     CUMULATIVE VOLUME      L**3       RATES FOR THIS TIME STEP      L**3/T          PACKAGE NAME    
     ------------------                 ------------------------                     ----------------

           IN:                                      IN:
           ---                                      ---
              STO-SS =           0.0000                STO-SS =           0.0000     STORAGE         
              STO-SY =  2396377442.7054                STO-SY =    28509549.0865     STORAGE         
                 WEL =           0.0000                   WEL =           0.0000     WEL_0           
                 DRN =           0.0000                   DRN =           0.0000     DRN_0           
                 RCH = 10416741048.1730                   RCH =    57833106.6236     RCH_0           

            TOTAL IN = 12813118490.8784              TOTAL IN =    86342655.7101

          OUT:                                     OUT:
          ----                                     ----
              STO-SS =           0.0000                STO-SS =           0.0000     STORAGE         
              STO-SY =  3002069166.9224                STO-SY =     4049459.4480     STORAGE         
                 WEL =   976172657.3323                   WEL =     6168326.8451     WEL_0           
                 DRN =  8834874966.7421                   DRN =    76124849.8244     DRN_0           
                 RCH =           0.0000                   RCH =           0.0000     RCH_0           

           TOTAL OUT = 12813116790.9969             TOTAL OUT =    86342636.1175

            IN - OUT =        1699.8815              IN - OUT =          19.5926

 PERCENT DISCREPANCY =           0.00     PERCENT DISCREPANCY =           0.00




         TIME SUMMARY AT END OF TIME STEP    1 IN STRESS PERIOD  116
                          TIME STEP LENGTH =    1.00000    
                        STRESS PERIOD TIME =    1.00000    
                     TOTAL SIMULATION TIME =    116.000    

end timestep


start timestep kper="117" kstp="1" mode="normal"


 OUTPUT CONTROL FOR STRESS PERIOD 117 IS REPEATED USING SETTINGS FROM A PREVIOUS STRESS PERIOD.


 STRESS PERIOD 117 IS TRANSIENT


 REUSING WELS FROM LAST STRESS PERIOD

 REUSING DRNS FROM LAST STRESS PERIOD

 REUSING RCHS FROM LAST STRESS PERIOD


  VOLUME BUDGET FOR ENTIRE MODEL AT END OF TIME STEP    1, STRESS PERIOD 117
  ---------------------------------------------------------------------------------------------------

     CUMULATIVE VOLUME      L**3       RATES FOR THIS TIME STEP      L**3/T          PACKAGE NAME    
     ------------------                 ------------------------                     ----------------

           IN:                                      IN:
           ---                                      ---
              STO-SS =           0.0000                STO-SS =           0.0000     STORAGE         
              STO-SY =  2424653607.6364                STO-SY =    28276164.9310     STORAGE         
                 WEL =           0.0000                   WEL =           0.0000     WEL_0           
                 DRN =           0.0000                   DRN =           0.0000     DRN_0           
                 RCH = 10469167422.9346                   RCH =    52426374.7616     RCH_0           

            TOTAL IN = 12893821030.5710              TOTAL IN =    80702539.6926

          OUT:                                     OUT:
          ----                                     ----
              STO-SS =           0.0000                STO-SS =           0.0000     STORAGE         
              STO-SY =  3006730667.6932                STO-SY =     4661500.7708     STORAGE         
                 WEL =   982475239.5148                   WEL =     6302582.1825     WEL_0           
                 DRN =  8904613404.0574                   DRN =    69738437.3152     DRN_0           
                 RCH =           0.0000                   RCH =           0.0000     RCH_0           

           TOTAL OUT = 12893819311.2653             TOTAL OUT =    80702520.2685

            IN - OUT =        1719.3057              IN - OUT =          19.4242

 PERCENT DISCREPANCY =           0.00     PERCENT DISCREPANCY =           0.00




         TIME SUMMARY AT END OF TIME STEP    1 IN STRESS PERIOD  117
                          TIME STEP LENGTH =    1.00000    
                        STRESS PERIOD TIME =    1.00000    
                     TOTAL SIMULATION TIME =    117.000    

end timestep


start timestep kper="118" kstp="1" mode="normal"


 OUTPUT CONTROL FOR STRESS PERIOD 118 IS REPEATED USING SETTINGS FROM A PREVIOUS STRESS PERIOD.


 STRESS PERIOD 118 IS TRANSIENT


 REUSING WELS FROM LAST STRESS PERIOD

 REUSING DRNS FROM LAST STRESS PERIOD

 REUSING RCHS FROM LAST STRESS PERIOD


  VOLUME BUDGET FOR ENTIRE MODEL AT END OF TIME STEP    1, STRESS PERIOD 118
  ---------------------------------------------------------------------------------------------------

     CUMULATIVE VOLUME      L**3       RATES FOR THIS TIME STEP      L**3/T          PACKAGE NAME    
     ------------------                 ------------------------                     ----------------

           IN:                                      IN:
           ---                                      ---
              STO-SS =           0.0000                STO-SS =           0.0000     STORAGE         
              STO-SY =  2453945637.2471                STO-SY =    29292029.6107     STORAGE         
                 WEL =           0.0000                   WEL =           0.0000     WEL_0           
                 DRN =           0.0000                   DRN =           0.0000     DRN_0           
                 RCH = 10522111562.0951                   RCH =    52944139.1605     RCH_0           

            TOTAL IN = 12976057199.3422              TOTAL IN =    82236168.7712

          OUT:                                     OUT:
          ----                                     ----
              STO-SS =           0.0000                STO-SS =           0.0000     STORAGE         
              STO-SY =  3010534499.9367                STO-SY =     3803832.2436     STORAGE         
                 WEL =   989088044.1417                   WEL =     6612804.6268     WEL_0           
                 DRN =  8976432791.4051                   DRN =    71819387.3478     DRN_0           
                 RCH =           0.0000                   RCH =           0.0000     RCH_0           

           TOTAL OUT = 12976055335.4835             TOTAL OUT =    82236024.2182

            IN - OUT =        1863.8586              IN - OUT =         144.5530

 PERCENT DISCREPANCY =           0.00     PERCENT DISCREPANCY =           0.00




         TIME SUMMARY AT END OF TIME STEP    1 IN STRESS PERIOD  118
                          TIME STEP LENGTH =    1.00000    
                        STRESS PERIOD TIME =    1.00000    
                     TOTAL SIMULATION TIME =    118.000    

end timestep


start timestep kper="119" kstp="1" mode="normal"


 OUTPUT CONTROL FOR STRESS PERIOD 119 IS REPEATED USING SETTINGS FROM A PREVIOUS STRESS PERIOD.


 STRESS PERIOD 119 IS TRANSIENT


 REUSING WELS FROM LAST STRESS PERIOD

 REUSING DRNS FROM LAST STRESS PERIOD

 REUSING RCHS FROM LAST STRESS PERIOD


  VOLUME BUDGET FOR ENTIRE MODEL AT END OF TIME STEP    1, STRESS PERIOD 119
  ---------------------------------------------------------------------------------------------------

     CUMULATIVE VOLUME      L**3       RATES FOR THIS TIME STEP      L**3/T          PACKAGE NAME    
     ------------------                 ------------------------                     ----------------

           IN:                                      IN:
           ---                                      ---
              STO-SS =           0.0000                STO-SS =           0.0000     STORAGE         
              STO-SY =  2474631463.7580                STO-SY =    20685826.5110     STORAGE         
                 WEL =           0.0000                   WEL =           0.0000     WEL_0           
                 DRN =           0.0000                   DRN =           0.0000     DRN_0           
                 RCH = 10588564163.2263                   RCH =    66452601.1312     RCH_0           

            TOTAL IN = 13063195626.9844              TOTAL IN =    87138427.6422

          OUT:                                     OUT:
          ----                                     ----
              STO-SS =           0.0000                STO-SS =           0.0000     STORAGE         
              STO-SY =  3018688298.2080                STO-SY =     8153798.2713     STORAGE         
                 WEL =   994867281.5180                   WEL =     5779237.3764     WEL_0           
                 DRN =  9049638179.8658                   DRN =    73205388.4607     DRN_0           
                 RCH =           0.0000                   RCH =           0.0000     RCH_0           

           TOTAL OUT = 13063193759.5918             TOTAL OUT =    87138424.1083

            IN - OUT =        1867.3925              IN - OUT =           3.5339

 PERCENT DISCREPANCY =           0.00     PERCENT DISCREPANCY =           0.00




         TIME SUMMARY AT END OF TIME STEP    1 IN STRESS PERIOD  119
                          TIME STEP LENGTH =    1.00000    
                        STRESS PERIOD TIME =    1.00000    
                     TOTAL SIMULATION TIME =    119.000    

end timestep


start timestep kper="120" kstp="1" mode="normal"


 OUTPUT CONTROL FOR STRESS PERIOD 120 IS REPEATED USING SETTINGS FROM A PREVIOUS STRESS PERIOD.


 STRESS PERIOD 120 IS TRANSIENT


 REUSING WELS FROM LAST STRESS PERIOD

 REUSING DRNS FROM LAST STRESS PERIOD

 REUSING RCHS FROM LAST STRESS PERIOD


  VOLUME BUDGET FOR ENTIRE MODEL AT END OF TIME STEP    1, STRESS PERIOD 120
  ---------------------------------------------------------------------------------------------------

     CUMULATIVE VOLUME      L**3       RATES FOR THIS TIME STEP      L**3/T          PACKAGE NAME    
     ------------------                 ------------------------                     ----------------

           IN:                                      IN:
           ---                                      ---
              STO-SS =           0.0000                STO-SS =           0.0000     STORAGE         
              STO-SY =  2486469989.2067                STO-SY =    11838525.4486     STORAGE         
                 WEL =           0.0000                   WEL =           0.0000     WEL_0           
                 DRN =           0.0000                   DRN =           0.0000     DRN_0           
                 RCH = 10703941522.2734                   RCH =   115377359.0470     RCH_0           

            TOTAL IN = 13190411511.4800              TOTAL IN =   127215884.4957

          OUT:                                     OUT:
          ----                                     ----
              STO-SS =           0.0000                STO-SS =           0.0000     STORAGE         
              STO-SY =  3047311344.7321                STO-SY =    28623046.5241     STORAGE         
                 WEL =  1000127666.2453                   WEL =     5260384.7273     WEL_0           
                 DRN =  9142970618.5205                   DRN =    93332438.6547     DRN_0           
                 RCH =           0.0000                   RCH =           0.0000     RCH_0           

           TOTAL OUT = 13190409629.4979             TOTAL OUT =   127215869.9061

            IN - OUT =        1881.9821              IN - OUT =          14.5896

 PERCENT DISCREPANCY =           0.00     PERCENT DISCREPANCY =           0.00




         TIME SUMMARY AT END OF TIME STEP    1 IN STRESS PERIOD  120
                          TIME STEP LENGTH =    1.00000    
                        STRESS PERIOD TIME =    1.00000    
                     TOTAL SIMULATION TIME =    120.000    

end timestep


start timestep kper="121" kstp="1" mode="normal"


 OUTPUT CONTROL FOR STRESS PERIOD 121 IS REPEATED USING SETTINGS FROM A PREVIOUS STRESS PERIOD.


 STRESS PERIOD 121 IS TRANSIENT


 REUSING WELS FROM LAST STRESS PERIOD

 REUSING DRNS FROM LAST STRESS PERIOD

 REUSING RCHS FROM LAST STRESS PERIOD


  VOLUME BUDGET FOR ENTIRE MODEL AT END OF TIME STEP    1, STRESS PERIOD 121
  ---------------------------------------------------------------------------------------------------

     CUMULATIVE VOLUME      L**3       RATES FOR THIS TIME STEP      L**3/T          PACKAGE NAME    
     ------------------                 ------------------------                     ----------------

           IN:                                      IN:
           ---                                      ---
              STO-SS =           0.0000                STO-SS =           0.0000     STORAGE         
              STO-SY =  2497144114.6885                STO-SY =    10674125.4819     STORAGE         
                 WEL =           0.0000                   WEL =           0.0000     WEL_0           
                 DRN =           0.0000                   DRN =           0.0000     DRN_0           
                 RCH = 10824293754.3335                   RCH =   120352232.0601     RCH_0           

            TOTAL IN = 13321437869.0220              TOTAL IN =   131026357.5420

          OUT:                                     OUT:
          ----                                     ----
              STO-SS =           0.0000                STO-SS =           0.0000     STORAGE         
              STO-SY =  3078085458.8897                STO-SY =    30774114.1576     STORAGE         
                 WEL =  1004632679.7269                   WEL =     4505013.4816     WEL_0           
                 DRN =  9238717848.5070                   DRN =    95747229.9865     DRN_0           
                 RCH =           0.0000                   RCH =           0.0000     RCH_0           

           TOTAL OUT = 13321435987.1236             TOTAL OUT =   131026357.6257

            IN - OUT =        1881.8984              IN - OUT =      -8.3726E-02

 PERCENT DISCREPANCY =           0.00     PERCENT DISCREPANCY =          -0.00




         TIME SUMMARY AT END OF TIME STEP    1 IN STRESS PERIOD  121
                          TIME STEP LENGTH =    1.00000    
                        STRESS PERIOD TIME =    1.00000    
                     TOTAL SIMULATION TIME =    121.000    

end timestep


start timestep kper="122" kstp="1" mode="normal"


 OUTPUT CONTROL FOR STRESS PERIOD 122 IS REPEATED USING SETTINGS FROM A PREVIOUS STRESS PERIOD.


 STRESS PERIOD 122 IS TRANSIENT


 REUSING WELS FROM LAST STRESS PERIOD

 REUSING DRNS FROM LAST STRESS PERIOD

 REUSING RCHS FROM LAST STRESS PERIOD


  VOLUME BUDGET FOR ENTIRE MODEL AT END OF TIME STEP    1, STRESS PERIOD 122
  ---------------------------------------------------------------------------------------------------

     CUMULATIVE VOLUME      L**3       RATES FOR THIS TIME STEP      L**3/T          PACKAGE NAME    
     ------------------                 ------------------------                     ----------------

           IN:                                      IN:
           ---                                      ---
              STO-SS =           0.0000                STO-SS =           0.0000     STORAGE         
              STO-SY =  2516088092.5194                STO-SY =    18943977.8309     STORAGE         
                 WEL =           0.0000                   WEL =           0.0000     WEL_0           
                 DRN =           0.0000                   DRN =           0.0000     DRN_0           
                 RCH = 10900423507.6040                   RCH =    76129753.2705     RCH_0           

            TOTAL IN = 13416511600.1233              TOTAL IN =    95073731.1013

          OUT:                                     OUT:
          ----                                     ----
              STO-SS =           0.0000                STO-SS =           0.0000     STORAGE         
              STO-SY =  3085809574.8708                STO-SY =     7724115.9811     STORAGE         
                 WEL =  1009495263.0684                   WEL =     4862583.3415     WEL_0           
                 DRN =  9321204858.3400                   DRN =    82487009.8330     DRN_0           
                 RCH =           0.0000                   RCH =           0.0000     RCH_0           

           TOTAL OUT = 13416509696.2792             TOTAL OUT =    95073709.1556

            IN - OUT =        1903.8441              IN - OUT =          21.9457

 PERCENT DISCREPANCY =           0.00     PERCENT DISCREPANCY =           0.00




         TIME SUMMARY AT END OF TIME STEP    1 IN STRESS PERIOD  122
                          TIME STEP LENGTH =    1.00000    
                        STRESS PERIOD TIME =    1.00000    
                     TOTAL SIMULATION TIME =    122.000    

end timestep


start timestep kper="123" kstp="1" mode="normal"


 OUTPUT CONTROL FOR STRESS PERIOD 123 IS REPEATED USING SETTINGS FROM A PREVIOUS STRESS PERIOD.


 STRESS PERIOD 123 IS TRANSIENT


 REUSING WELS FROM LAST STRESS PERIOD

 REUSING DRNS FROM LAST STRESS PERIOD

 REUSING RCHS FROM LAST STRESS PERIOD


  VOLUME BUDGET FOR ENTIRE MODEL AT END OF TIME STEP    1, STRESS PERIOD 123
  ---------------------------------------------------------------------------------------------------

     CUMULATIVE VOLUME      L**3       RATES FOR THIS TIME STEP      L**3/T          PACKAGE NAME    
     ------------------                 ------------------------                     ----------------

           IN:                                      IN:
           ---                                      ---
              STO-SS =           0.0000                STO-SS =           0.0000     STORAGE         
              STO-SY =  2528783808.5409                STO-SY =    12695716.0215     STORAGE         
                 WEL =           0.0000                   WEL =           0.0000     WEL_0           
                 DRN =           0.0000                   DRN =           0.0000     DRN_0           
                 RCH = 10987291956.5564                   RCH =    86868448.9524     RCH_0           

            TOTAL IN = 13516075765.0973              TOTAL IN =    99564164.9739

          OUT:                                     OUT:
          ----                                     ----
              STO-SS =           0.0000                STO-SS =           0.0000     STORAGE         
              STO-SY =  3096059762.3375                STO-SY =    10250187.4667     STORAGE         
                 WEL =  1013998693.4194                   WEL =     4503430.3510     WEL_0           
                 DRN =  9406015404.1703                   DRN =    84810545.8302     DRN_0           
                 RCH =           0.0000                   RCH =           0.0000     RCH_0           

           TOTAL OUT = 13516073859.9272             TOTAL OUT =    99564163.6479

            IN - OUT =        1905.1701              IN - OUT =           1.3260

 PERCENT DISCREPANCY =           0.00     PERCENT DISCREPANCY =           0.00




         TIME SUMMARY AT END OF TIME STEP    1 IN STRESS PERIOD  123
                          TIME STEP LENGTH =    1.00000    
                        STRESS PERIOD TIME =    1.00000    
                     TOTAL SIMULATION TIME =    123.000    

end timestep


start timestep kper="124" kstp="1" mode="normal"


 OUTPUT CONTROL FOR STRESS PERIOD 124 IS REPEATED USING SETTINGS FROM A PREVIOUS STRESS PERIOD.


 STRESS PERIOD 124 IS TRANSIENT


 REUSING WELS FROM LAST STRESS PERIOD

 REUSING DRNS FROM LAST STRESS PERIOD

 REUSING RCHS FROM LAST STRESS PERIOD


  VOLUME BUDGET FOR ENTIRE MODEL AT END OF TIME STEP    1, STRESS PERIOD 124
  ---------------------------------------------------------------------------------------------------

     CUMULATIVE VOLUME      L**3       RATES FOR THIS TIME STEP      L**3/T          PACKAGE NAME    
     ------------------                 ------------------------                     ----------------

           IN:                                      IN:
           ---                                      ---
              STO-SS =           0.0000                STO-SS =           0.0000     STORAGE         
              STO-SY =  2551355393.3202                STO-SY =    22571584.7793     STORAGE         
                 WEL =           0.0000                   WEL =           0.0000     WEL_0           
                 DRN =           0.0000                   DRN =           0.0000     DRN_0           
                 RCH = 11055397464.3472                   RCH =    68105507.7908     RCH_0           

            TOTAL IN = 13606752857.6674              TOTAL IN =    90677092.5701

          OUT:                                     OUT:
          ----                                     ----
              STO-SS =           0.0000                STO-SS =           0.0000     STORAGE         
              STO-SY =  3101398318.3165                STO-SY =     5338555.9790     STORAGE         
                 WEL =  1018545228.4720                   WEL =     4546535.0526     WEL_0           
                 DRN =  9486807401.4154                   DRN =    80791997.2452     DRN_0           
                 RCH =           0.0000                   RCH =           0.0000     RCH_0           

           TOTAL OUT = 13606750948.2040             TOTAL OUT =    90677088.2768

            IN - OUT =        1909.4634              IN - OUT =           4.2933

 PERCENT DISCREPANCY =           0.00     PERCENT DISCREPANCY =           0.00




         TIME SUMMARY AT END OF TIME STEP    1 IN STRESS PERIOD  124
                          TIME STEP LENGTH =    1.00000    
                        STRESS PERIOD TIME =    1.00000    
                     TOTAL SIMULATION TIME =    124.000    

end timestep


start timestep kper="125" kstp="1" mode="normal"


 OUTPUT CONTROL FOR STRESS PERIOD 125 IS REPEATED USING SETTINGS FROM A PREVIOUS STRESS PERIOD.


 STRESS PERIOD 125 IS TRANSIENT


 REUSING WELS FROM LAST STRESS PERIOD

 REUSING DRNS FROM LAST STRESS PERIOD

 REUSING RCHS FROM LAST STRESS PERIOD


  VOLUME BUDGET FOR ENTIRE MODEL AT END OF TIME STEP    1, STRESS PERIOD 125
  ---------------------------------------------------------------------------------------------------

     CUMULATIVE VOLUME      L**3       RATES FOR THIS TIME STEP      L**3/T          PACKAGE NAME    
     ------------------                 ------------------------                     ----------------

           IN:                                      IN:
           ---                                      ---
              STO-SS =           0.0000                STO-SS =           0.0000     STORAGE         
              STO-SY =  2571323300.5608                STO-SY =    19967907.2406     STORAGE         
                 WEL =           0.0000                   WEL =           0.0000     WEL_0           
                 DRN =           0.0000                   DRN =           0.0000     DRN_0           
                 RCH = 11139570451.8224                   RCH =    84172987.4752     RCH_0           

            TOTAL IN = 13710893752.3832              TOTAL IN =   104140894.7159

          OUT:                                     OUT:
          ----                                     ----
              STO-SS =           0.0000                STO-SS =           0.0000     STORAGE         
              STO-SY =  3115823394.2071                STO-SY =    14425075.8906     STORAGE         
                 WEL =  1023283235.3898                   WEL =     4738006.9177     WEL_0           
                 DRN =  9571785171.4958                   DRN =    84977770.0804     DRN_0           
                 RCH =           0.0000                   RCH =           0.0000     RCH_0           

           TOTAL OUT = 13710891801.0928             TOTAL OUT =   104140852.8888

            IN - OUT =        1951.2905              IN - OUT =          41.8271

 PERCENT DISCREPANCY =           0.00     PERCENT DISCREPANCY =           0.00




         TIME SUMMARY AT END OF TIME STEP    1 IN STRESS PERIOD  125
                          TIME STEP LENGTH =    1.00000    
                        STRESS PERIOD TIME =    1.00000    
                     TOTAL SIMULATION TIME =    125.000    

end timestep


start timestep kper="126" kstp="1" mode="normal"


 OUTPUT CONTROL FOR STRESS PERIOD 126 IS REPEATED USING SETTINGS FROM A PREVIOUS STRESS PERIOD.


 STRESS PERIOD 126 IS TRANSIENT


 REUSING WELS FROM LAST STRESS PERIOD

 REUSING DRNS FROM LAST STRESS PERIOD

 REUSING RCHS FROM LAST STRESS PERIOD


  VOLUME BUDGET FOR ENTIRE MODEL AT END OF TIME STEP    1, STRESS PERIOD 126
  ---------------------------------------------------------------------------------------------------

     CUMULATIVE VOLUME      L**3       RATES FOR THIS TIME STEP      L**3/T          PACKAGE NAME    
     ------------------                 ------------------------                     ----------------

           IN:                                      IN:
           ---                                      ---
              STO-SS =           0.0000                STO-SS =           0.0000     STORAGE         
              STO-SY =  2594549745.1699                STO-SY =    23226444.6091     STORAGE         
                 WEL =           0.0000                   WEL =           0.0000     WEL_0           
                 DRN =           0.0000                   DRN =           0.0000     DRN_0           
                 RCH = 11216508147.4198                   RCH =    76937695.5973     RCH_0           

            TOTAL IN = 13811057892.5897              TOTAL IN =   100164140.2065

          OUT:                                     OUT:
          ----                                     ----
              STO-SS =           0.0000                STO-SS =           0.0000     STORAGE         
              STO-SY =  3126241883.9669                STO-SY =    10418489.7598     STORAGE         
                 WEL =  1028478434.2388                   WEL =     5195198.8490     WEL_0           
                 DRN =  9656335571.5180                   DRN =    84550400.0222     DRN_0           
                 RCH =           0.0000                   RCH =           0.0000     RCH_0           

           TOTAL OUT = 13811055889.7237             TOTAL OUT =   100164088.6310

            IN - OUT =        2002.8660              IN - OUT =          51.5755

 PERCENT DISCREPANCY =           0.00     PERCENT DISCREPANCY =           0.00




         TIME SUMMARY AT END OF TIME STEP    1 IN STRESS PERIOD  126
                          TIME STEP LENGTH =    1.00000    
                        STRESS PERIOD TIME =    1.00000    
                     TOTAL SIMULATION TIME =    126.000    

end timestep


start timestep kper="127" kstp="1" mode="normal"


 OUTPUT CONTROL FOR STRESS PERIOD 127 IS REPEATED USING SETTINGS FROM A PREVIOUS STRESS PERIOD.


 STRESS PERIOD 127 IS TRANSIENT


 REUSING WELS FROM LAST STRESS PERIOD

 REUSING DRNS FROM LAST STRESS PERIOD

 REUSING RCHS FROM LAST STRESS PERIOD


  VOLUME BUDGET FOR ENTIRE MODEL AT END OF TIME STEP    1, STRESS PERIOD 127
  ---------------------------------------------------------------------------------------------------

     CUMULATIVE VOLUME      L**3       RATES FOR THIS TIME STEP      L**3/T          PACKAGE NAME    
     ------------------                 ------------------------                     ----------------

           IN:                                      IN:
           ---                                      ---
              STO-SS =           0.0000                STO-SS =           0.0000     STORAGE         
              STO-SY =  2615157462.7569                STO-SY =    20607717.5870     STORAGE         
                 WEL =           0.0000                   WEL =           0.0000     WEL_0           
                 DRN =           0.0000                   DRN =           0.0000     DRN_0           
                 RCH = 11286871539.0475                   RCH =    70363391.6278     RCH_0           

            TOTAL IN = 13902029001.8045              TOTAL IN =    90971109.2148

          OUT:                                     OUT:
          ----                                     ----
              STO-SS =           0.0000                STO-SS =           0.0000     STORAGE         
              STO-SY =  3132529433.9646                STO-SY =     6287549.9977     STORAGE         
                 WEL =  1033743556.2467                   WEL =     5265122.0080     WEL_0           
                 DRN =  9735753956.6045                   DRN =    79418385.0865     DRN_0           
                 RCH =           0.0000                   RCH =           0.0000     RCH_0           

           TOTAL OUT = 13902026946.8158             TOTAL OUT =    90971057.0921

            IN - OUT =        2054.9886              IN - OUT =          52.1227

 PERCENT DISCREPANCY =           0.00     PERCENT DISCREPANCY =           0.00




         TIME SUMMARY AT END OF TIME STEP    1 IN STRESS PERIOD  127
                          TIME STEP LENGTH =    1.00000    
                        STRESS PERIOD TIME =    1.00000    
                     TOTAL SIMULATION TIME =    127.000    

end timestep


start timestep kper="128" kstp="1" mode="normal"


 OUTPUT CONTROL FOR STRESS PERIOD 128 IS REPEATED USING SETTINGS FROM A PREVIOUS STRESS PERIOD.


 STRESS PERIOD 128 IS TRANSIENT


 REUSING WELS FROM LAST STRESS PERIOD

 REUSING DRNS FROM LAST STRESS PERIOD

 REUSING RCHS FROM LAST STRESS PERIOD


  VOLUME BUDGET FOR ENTIRE MODEL AT END OF TIME STEP    1, STRESS PERIOD 128
  ---------------------------------------------------------------------------------------------------

     CUMULATIVE VOLUME      L**3       RATES FOR THIS TIME STEP      L**3/T          PACKAGE NAME    
     ------------------                 ------------------------                     ----------------

           IN:                                      IN:
           ---                                      ---
              STO-SS =           0.0000                STO-SS =           0.0000     STORAGE         
              STO-SY =  2640851181.0919                STO-SY =    25693718.3349     STORAGE         
                 WEL =           0.0000                   WEL =           0.0000     WEL_0           
                 DRN =           0.0000                   DRN =           0.0000     DRN_0           
                 RCH = 11349498846.9300                   RCH =    62627307.8825     RCH_0           

            TOTAL IN = 13990350028.0218              TOTAL IN =    88321026.2174

          OUT:                                     OUT:
          ----                                     ----
              STO-SS =           0.0000                STO-SS =           0.0000     STORAGE         
              STO-SY =  3136930580.7060                STO-SY =     4401146.7414     STORAGE         
                 WEL =  1039267851.0633                   WEL =     5524294.8166     WEL_0           
                 DRN =  9814149534.2665                   DRN =    78395577.6620     DRN_0           
                 RCH =           0.0000                   RCH =           0.0000     RCH_0           

           TOTAL OUT = 13990347966.0358             TOTAL OUT =    88321019.2200

            IN - OUT =        2061.9860              IN - OUT =           6.9974

 PERCENT DISCREPANCY =           0.00     PERCENT DISCREPANCY =           0.00




         TIME SUMMARY AT END OF TIME STEP    1 IN STRESS PERIOD  128
                          TIME STEP LENGTH =    1.00000    
                        STRESS PERIOD TIME =    1.00000    
                     TOTAL SIMULATION TIME =    128.000    

end timestep


start timestep kper="129" kstp="1" mode="normal"


 OUTPUT CONTROL FOR STRESS PERIOD 129 IS REPEATED USING SETTINGS FROM A PREVIOUS STRESS PERIOD.


 STRESS PERIOD 129 IS TRANSIENT


 REUSING WELS FROM LAST STRESS PERIOD

 REUSING DRNS FROM LAST STRESS PERIOD

 REUSING RCHS FROM LAST STRESS PERIOD


  VOLUME BUDGET FOR ENTIRE MODEL AT END OF TIME STEP    1, STRESS PERIOD 129
  ---------------------------------------------------------------------------------------------------

     CUMULATIVE VOLUME      L**3       RATES FOR THIS TIME STEP      L**3/T          PACKAGE NAME    
     ------------------                 ------------------------                     ----------------

           IN:                                      IN:
           ---                                      ---
              STO-SS =           0.0000                STO-SS =           0.0000     STORAGE         
              STO-SY =  2659288894.2664                STO-SY =    18437713.1746     STORAGE         
                 WEL =           0.0000                   WEL =           0.0000     WEL_0           
                 DRN =           0.0000                   DRN =           0.0000     DRN_0           
                 RCH = 11420461562.8584                   RCH =    70962715.9285     RCH_0           

            TOTAL IN = 14079750457.1249              TOTAL IN =    89400429.1030

          OUT:                                     OUT:
          ----                                     ----
              STO-SS =           0.0000                STO-SS =           0.0000     STORAGE         
              STO-SY =  3143207552.0756                STO-SY =     6276971.3695     STORAGE         
                 WEL =  1044683460.8940                   WEL =     5415609.8308     WEL_0           
                 DRN =  9891857378.2349                   DRN =    77707843.9684     DRN_0           
                 RCH =           0.0000                   RCH =           0.0000     RCH_0           

           TOTAL OUT = 14079748391.2045             TOTAL OUT =    89400425.1687

            IN - OUT =        2065.9204              IN - OUT =           3.9344

 PERCENT DISCREPANCY =           0.00     PERCENT DISCREPANCY =           0.00




         TIME SUMMARY AT END OF TIME STEP    1 IN STRESS PERIOD  129
                          TIME STEP LENGTH =    1.00000    
                        STRESS PERIOD TIME =    1.00000    
                     TOTAL SIMULATION TIME =    129.000    

end timestep


start timestep kper="130" kstp="1" mode="normal"


 OUTPUT CONTROL FOR STRESS PERIOD 130 IS REPEATED USING SETTINGS FROM A PREVIOUS STRESS PERIOD.


 STRESS PERIOD 130 IS TRANSIENT


 REUSING WELS FROM LAST STRESS PERIOD

 REUSING DRNS FROM LAST STRESS PERIOD

 REUSING RCHS FROM LAST STRESS PERIOD


  VOLUME BUDGET FOR ENTIRE MODEL AT END OF TIME STEP    1, STRESS PERIOD 130
  ---------------------------------------------------------------------------------------------------

     CUMULATIVE VOLUME      L**3       RATES FOR THIS TIME STEP      L**3/T          PACKAGE NAME    
     ------------------                 ------------------------                     ----------------

           IN:                                      IN:
           ---                                      ---
              STO-SS =           0.0000                STO-SS =           0.0000     STORAGE         
              STO-SY =  2669683382.3055                STO-SY =    10394488.0391     STORAGE         
                 WEL =           0.0000                   WEL =           0.0000     WEL_0           
                 DRN =           0.0000                   DRN =           0.0000     DRN_0           
                 RCH = 11524764039.4314                   RCH =   104302476.5729     RCH_0           

            TOTAL IN = 14194447421.7369              TOTAL IN =   114696964.6120

          OUT:                                     OUT:
          ----                                     ----
              STO-SS =           0.0000                STO-SS =           0.0000     STORAGE         
              STO-SY =  3161444944.0201                STO-SY =    18237391.9446     STORAGE         
                 WEL =  1049494507.3342                   WEL =     4811046.4401     WEL_0           
                 DRN =  9983505848.3640                   DRN =    91648470.1292     DRN_0           
                 RCH =           0.0000                   RCH =           0.0000     RCH_0           

           TOTAL OUT = 14194445299.7183             TOTAL OUT =   114696908.5138

            IN - OUT =        2122.0185              IN - OUT =          56.0982

 PERCENT DISCREPANCY =           0.00     PERCENT DISCREPANCY =           0.00




         TIME SUMMARY AT END OF TIME STEP    1 IN STRESS PERIOD  130
                          TIME STEP LENGTH =    1.00000    
                        STRESS PERIOD TIME =    1.00000    
                     TOTAL SIMULATION TIME =    130.000    

end timestep


start timestep kper="131" kstp="1" mode="normal"


 OUTPUT CONTROL FOR STRESS PERIOD 131 IS REPEATED USING SETTINGS FROM A PREVIOUS STRESS PERIOD.


 STRESS PERIOD 131 IS TRANSIENT


 REUSING WELS FROM LAST STRESS PERIOD

 REUSING DRNS FROM LAST STRESS PERIOD

 REUSING RCHS FROM LAST STRESS PERIOD


  VOLUME BUDGET FOR ENTIRE MODEL AT END OF TIME STEP    1, STRESS PERIOD 131
  ---------------------------------------------------------------------------------------------------

     CUMULATIVE VOLUME      L**3       RATES FOR THIS TIME STEP      L**3/T          PACKAGE NAME    
     ------------------                 ------------------------                     ----------------

           IN:                                      IN:
           ---                                      ---
              STO-SS =           0.0000                STO-SS =           0.0000     STORAGE         
              STO-SY =  2691840909.4024                STO-SY =    22157527.0969     STORAGE         
                 WEL =           0.0000                   WEL =           0.0000     WEL_0           
                 DRN =           0.0000                   DRN =           0.0000     DRN_0           
                 RCH = 11591697664.3853                   RCH =    66933624.9540     RCH_0           

            TOTAL IN = 14283538573.7877              TOTAL IN =    89091152.0508

          OUT:                                     OUT:
          ----                                     ----
              STO-SS =           0.0000                STO-SS =           0.0000     STORAGE         
              STO-SY =  3167152784.2380                STO-SY =     5707840.2178     STORAGE         
                 WEL =  1054714773.6939                   WEL =     5220266.3598     WEL_0           
                 DRN = 10061668867.3372                   DRN =    78163018.9731     DRN_0           
                 RCH =           0.0000                   RCH =           0.0000     RCH_0           

           TOTAL OUT = 14283536425.2691             TOTAL OUT =    89091125.5507

            IN - OUT =        2148.5186              IN - OUT =          26.5001

 PERCENT DISCREPANCY =           0.00     PERCENT DISCREPANCY =           0.00




         TIME SUMMARY AT END OF TIME STEP    1 IN STRESS PERIOD  131
                          TIME STEP LENGTH =    1.00000    
                        STRESS PERIOD TIME =    1.00000    
                     TOTAL SIMULATION TIME =    131.000    

end timestep


start timestep kper="132" kstp="1" mode="normal"


 OUTPUT CONTROL FOR STRESS PERIOD 132 IS REPEATED USING SETTINGS FROM A PREVIOUS STRESS PERIOD.


 STRESS PERIOD 132 IS TRANSIENT


 REUSING WELS FROM LAST STRESS PERIOD

 REUSING DRNS FROM LAST STRESS PERIOD

 REUSING RCHS FROM LAST STRESS PERIOD


  VOLUME BUDGET FOR ENTIRE MODEL AT END OF TIME STEP    1, STRESS PERIOD 132
  ---------------------------------------------------------------------------------------------------

     CUMULATIVE VOLUME      L**3       RATES FOR THIS TIME STEP      L**3/T          PACKAGE NAME    
     ------------------                 ------------------------                     ----------------

           IN:                                      IN:
           ---                                      ---
              STO-SS =           0.0000                STO-SS =           0.0000     STORAGE         
              STO-SY =  2702264614.7813                STO-SY =    10423705.3789     STORAGE         
                 WEL =           0.0000                   WEL =           0.0000     WEL_0           
                 DRN =           0.0000                   DRN =           0.0000     DRN_0           
                 RCH = 11728387912.5510                   RCH =   136690248.1656     RCH_0           

            TOTAL IN = 14430652527.3323              TOTAL IN =   147113953.5446

          OUT:                                     OUT:
          ----                                     ----
              STO-SS =           0.0000                STO-SS =           0.0000     STORAGE         
              STO-SY =  3202999071.5959                STO-SY =    35846287.3579     STORAGE         
                 WEL =  1059353876.2818                   WEL =     4639102.5878     WEL_0           
                 DRN = 10168297419.7876                   DRN =   106628552.4505     DRN_0           
                 RCH =           0.0000                   RCH =           0.0000     RCH_0           

           TOTAL OUT = 14430650367.6653             TOTAL OUT =   147113942.3962

            IN - OUT =        2159.6670              IN - OUT =          11.1484

 PERCENT DISCREPANCY =           0.00     PERCENT DISCREPANCY =           0.00




         TIME SUMMARY AT END OF TIME STEP    1 IN STRESS PERIOD  132
                          TIME STEP LENGTH =    1.00000    
                        STRESS PERIOD TIME =    1.00000    
                     TOTAL SIMULATION TIME =    132.000    

end timestep


start timestep kper="133" kstp="1" mode="normal"


 OUTPUT CONTROL FOR STRESS PERIOD 133 IS REPEATED USING SETTINGS FROM A PREVIOUS STRESS PERIOD.


 STRESS PERIOD 133 IS TRANSIENT


 REUSING WELS FROM LAST STRESS PERIOD

 REUSING DRNS FROM LAST STRESS PERIOD

 REUSING RCHS FROM LAST STRESS PERIOD


  VOLUME BUDGET FOR ENTIRE MODEL AT END OF TIME STEP    1, STRESS PERIOD 133
  ---------------------------------------------------------------------------------------------------

     CUMULATIVE VOLUME      L**3       RATES FOR THIS TIME STEP      L**3/T          PACKAGE NAME    
     ------------------                 ------------------------                     ----------------

           IN:                                      IN:
           ---                                      ---
              STO-SS =           0.0000                STO-SS =           0.0000     STORAGE         
              STO-SY =  2709458566.3661                STO-SY =     7193951.5848     STORAGE         
                 WEL =           0.0000                   WEL =           0.0000     WEL_0           
                 DRN =           0.0000                   DRN =           0.0000     DRN_0           
                 RCH = 12227749686.3681                   RCH =   499361773.8171     RCH_0           

            TOTAL IN = 14937208252.7342              TOTAL IN =   506555725.4019

          OUT:                                     OUT:
          ----                                     ----
              STO-SS =           0.0000                STO-SS =           0.0000     STORAGE         
              STO-SY =  3438184910.6528                STO-SY =   235185839.0570     STORAGE         
                 WEL =  1061138736.4723                   WEL =     1784860.1905     WEL_0           
                 DRN = 10437882445.8069                   DRN =   269585026.0193     DRN_0           
                 RCH =           0.0000                   RCH =           0.0000     RCH_0           

           TOTAL OUT = 14937206092.9320             TOTAL OUT =   506555725.2668

            IN - OUT =        2159.8022              IN - OUT =           0.1351

 PERCENT DISCREPANCY =           0.00     PERCENT DISCREPANCY =           0.00




         TIME SUMMARY AT END OF TIME STEP    1 IN STRESS PERIOD  133
                          TIME STEP LENGTH =    1.00000    
                        STRESS PERIOD TIME =    1.00000    
                     TOTAL SIMULATION TIME =    133.000    

end timestep


start timestep kper="134" kstp="1" mode="normal"


 OUTPUT CONTROL FOR STRESS PERIOD 134 IS REPEATED USING SETTINGS FROM A PREVIOUS STRESS PERIOD.


 STRESS PERIOD 134 IS TRANSIENT


 REUSING WELS FROM LAST STRESS PERIOD

 REUSING DRNS FROM LAST STRESS PERIOD

 REUSING RCHS FROM LAST STRESS PERIOD


  VOLUME BUDGET FOR ENTIRE MODEL AT END OF TIME STEP    1, STRESS PERIOD 134
  ---------------------------------------------------------------------------------------------------

     CUMULATIVE VOLUME      L**3       RATES FOR THIS TIME STEP      L**3/T          PACKAGE NAME    
     ------------------                 ------------------------                     ----------------

           IN:                                      IN:
           ---                                      ---
              STO-SS =           0.0000                STO-SS =           0.0000     STORAGE         
              STO-SY =  2722337732.1112                STO-SY =    12879165.7452     STORAGE         
                 WEL =           0.0000                   WEL =           0.0000     WEL_0           
                 DRN =           0.0000                   DRN =           0.0000     DRN_0           
                 RCH = 12377662506.0773                   RCH =   149912819.7092     RCH_0           

            TOTAL IN = 15100000238.1886              TOTAL IN =   162791985.4544

          OUT:                                     OUT:
          ----                                     ----
              STO-SS =           0.0000                STO-SS =           0.0000     STORAGE         
              STO-SY =  3475566266.0487                STO-SY =    37381355.3959     STORAGE         
                 WEL =  1063537967.6607                   WEL =     2399231.1884     WEL_0           
                 DRN = 10560893818.1751                   DRN =   123011372.3682     DRN_0           
                 RCH =           0.0000                   RCH =           0.0000     RCH_0           

           TOTAL OUT = 15099998051.8845             TOTAL OUT =   162791958.9525

            IN - OUT =        2186.3041              IN - OUT =          26.5019

 PERCENT DISCREPANCY =           0.00     PERCENT DISCREPANCY =           0.00




         TIME SUMMARY AT END OF TIME STEP    1 IN STRESS PERIOD  134
                          TIME STEP LENGTH =    1.00000    
                        STRESS PERIOD TIME =    1.00000    
                     TOTAL SIMULATION TIME =    134.000    

end timestep


start timestep kper="135" kstp="1" mode="normal"


 OUTPUT CONTROL FOR STRESS PERIOD 135 IS REPEATED USING SETTINGS FROM A PREVIOUS STRESS PERIOD.


 STRESS PERIOD 135 IS TRANSIENT


 REUSING WELS FROM LAST STRESS PERIOD

 REUSING DRNS FROM LAST STRESS PERIOD

 REUSING RCHS FROM LAST STRESS PERIOD


  VOLUME BUDGET FOR ENTIRE MODEL AT END OF TIME STEP    1, STRESS PERIOD 135
  ---------------------------------------------------------------------------------------------------

     CUMULATIVE VOLUME      L**3       RATES FOR THIS TIME STEP      L**3/T          PACKAGE NAME    
     ------------------                 ------------------------                     ----------------

           IN:                                      IN:
           ---                                      ---
              STO-SS =           0.0000                STO-SS =           0.0000     STORAGE         
              STO-SY =  2732566516.0987                STO-SY =    10228783.9875     STORAGE         
                 WEL =           0.0000                   WEL =           0.0000     WEL_0           
                 DRN =           0.0000                   DRN =           0.0000     DRN_0           
                 RCH = 12519541557.7543                   RCH =   141879051.6770     RCH_0           

            TOTAL IN = 15252108073.8531              TOTAL IN =   152107835.6645

          OUT:                                     OUT:
          ----                                     ----
              STO-SS =           0.0000                STO-SS =           0.0000     STORAGE         
              STO-SY =  3499764578.4936                STO-SY =    24198312.4449     STORAGE         
                 WEL =  1066346353.6643                   WEL =     2808386.0036     WEL_0           
                 DRN = 10685994842.3124                   DRN =   125101024.1373     DRN_0           
                 RCH =           0.0000                   RCH =           0.0000     RCH_0           

           TOTAL OUT = 15252105774.4704             TOTAL OUT =   152107722.5859

            IN - OUT =        2299.3827              IN - OUT =         113.0786

 PERCENT DISCREPANCY =           0.00     PERCENT DISCREPANCY =           0.00




         TIME SUMMARY AT END OF TIME STEP    1 IN STRESS PERIOD  135
                          TIME STEP LENGTH =    1.00000    
                        STRESS PERIOD TIME =    1.00000    
                     TOTAL SIMULATION TIME =    135.000    

end timestep


start timestep kper="136" kstp="1" mode="normal"


 OUTPUT CONTROL FOR STRESS PERIOD 136 IS REPEATED USING SETTINGS FROM A PREVIOUS STRESS PERIOD.


 STRESS PERIOD 136 IS TRANSIENT


 REUSING WELS FROM LAST STRESS PERIOD

 REUSING DRNS FROM LAST STRESS PERIOD

 REUSING RCHS FROM LAST STRESS PERIOD


  VOLUME BUDGET FOR ENTIRE MODEL AT END OF TIME STEP    1, STRESS PERIOD 136
  ---------------------------------------------------------------------------------------------------

     CUMULATIVE VOLUME      L**3       RATES FOR THIS TIME STEP      L**3/T          PACKAGE NAME    
     ------------------                 ------------------------                     ----------------

           IN:                                      IN:
           ---                                      ---
              STO-SS =           0.0000                STO-SS =           0.0000     STORAGE         
              STO-SY =  2750157431.8992                STO-SY =    17590915.8005     STORAGE         
                 WEL =           0.0000                   WEL =           0.0000     WEL_0           
                 DRN =           0.0000                   DRN =           0.0000     DRN_0           
                 RCH = 12626241457.1394                   RCH =   106699899.3850     RCH_0           

            TOTAL IN = 15376398889.0386              TOTAL IN =   124290815.1855

          OUT:                                     OUT:
          ----                                     ----
              STO-SS =           0.0000                STO-SS =           0.0000     STORAGE         
              STO-SY =  3511307779.0056                STO-SY =    11543200.5120     STORAGE         
                 WEL =  1069678245.6410                   WEL =     3331891.9767     WEL_0           
                 DRN = 10795410565.8723                   DRN =   109415723.5599     DRN_0           
                 RCH =           0.0000                   RCH =           0.0000     RCH_0           

           TOTAL OUT = 15376396590.5189             TOTAL OUT =   124290816.0485

            IN - OUT =        2298.5197              IN - OUT =          -0.8630

 PERCENT DISCREPANCY =           0.00     PERCENT DISCREPANCY =          -0.00




         TIME SUMMARY AT END OF TIME STEP    1 IN STRESS PERIOD  136
                          TIME STEP LENGTH =    1.00000    
                        STRESS PERIOD TIME =    1.00000    
                     TOTAL SIMULATION TIME =    136.000    

end timestep


start timestep kper="137" kstp="1" mode="normal"


 OUTPUT CONTROL FOR STRESS PERIOD 137 IS REPEATED USING SETTINGS FROM A PREVIOUS STRESS PERIOD.


 STRESS PERIOD 137 IS TRANSIENT


 REUSING WELS FROM LAST STRESS PERIOD

 REUSING DRNS FROM LAST STRESS PERIOD

 REUSING RCHS FROM LAST STRESS PERIOD


  VOLUME BUDGET FOR ENTIRE MODEL AT END OF TIME STEP    1, STRESS PERIOD 137
  ---------------------------------------------------------------------------------------------------

     CUMULATIVE VOLUME      L**3       RATES FOR THIS TIME STEP      L**3/T          PACKAGE NAME    
     ------------------                 ------------------------                     ----------------

           IN:                                      IN:
           ---                                      ---
              STO-SS =           0.0000                STO-SS =           0.0000     STORAGE         
              STO-SY =  2756505455.1241                STO-SY =     6348023.2248     STORAGE         
                 WEL =           0.0000                   WEL =           0.0000     WEL_0           
                 DRN =           0.0000                   DRN =           0.0000     DRN_0           
                 RCH = 12946668095.7471                   RCH =   320426638.6077     RCH_0           

            TOTAL IN = 15703173550.8712              TOTAL IN =   326774661.8326

          OUT:                                     OUT:
          ----                                     ----
              STO-SS =           0.0000                STO-SS =           0.0000     STORAGE         
              STO-SY =  3619877735.4663                STO-SY =   108569956.4607     STORAGE         
                 WEL =  1072343617.6434                   WEL =     2665372.0024     WEL_0           
                 DRN = 11010949876.2336                   DRN =   215539310.3613     DRN_0           
                 RCH =           0.0000                   RCH =           0.0000     RCH_0           

           TOTAL OUT = 15703171229.3432             TOTAL OUT =   326774638.8243

            IN - OUT =        2321.5279              IN - OUT =          23.0082

 PERCENT DISCREPANCY =           0.00     PERCENT DISCREPANCY =           0.00




         TIME SUMMARY AT END OF TIME STEP    1 IN STRESS PERIOD  137
                          TIME STEP LENGTH =    1.00000    
                        STRESS PERIOD TIME =    1.00000    
                     TOTAL SIMULATION TIME =    137.000    

end timestep


start timestep kper="138" kstp="1" mode="normal"


 OUTPUT CONTROL FOR STRESS PERIOD 138 IS REPEATED USING SETTINGS FROM A PREVIOUS STRESS PERIOD.


 STRESS PERIOD 138 IS TRANSIENT


 REUSING WELS FROM LAST STRESS PERIOD

 REUSING DRNS FROM LAST STRESS PERIOD

 REUSING RCHS FROM LAST STRESS PERIOD


  VOLUME BUDGET FOR ENTIRE MODEL AT END OF TIME STEP    1, STRESS PERIOD 138
  ---------------------------------------------------------------------------------------------------

     CUMULATIVE VOLUME      L**3       RATES FOR THIS TIME STEP      L**3/T          PACKAGE NAME    
     ------------------                 ------------------------                     ----------------

           IN:                                      IN:
           ---                                      ---
              STO-SS =           0.0000                STO-SS =           0.0000     STORAGE         
              STO-SY =  2778210778.7688                STO-SY =    21705323.6447     STORAGE         
                 WEL =           0.0000                   WEL =           0.0000     WEL_0           
                 DRN =           0.0000                   DRN =           0.0000     DRN_0           
                 RCH = 13067174451.0517                   RCH =   120506355.3046     RCH_0           

            TOTAL IN = 15845385229.8204              TOTAL IN =   142211678.9493

          OUT:                                     OUT:
          ----                                     ----
              STO-SS =           0.0000                STO-SS =           0.0000     STORAGE         
              STO-SY =  3636737681.2710                STO-SY =    16859945.8047     STORAGE         
                 WEL =  1075505217.1286                   WEL =     3161599.4852     WEL_0           
                 DRN = 11133140024.2356                   DRN =   122190148.0021     DRN_0           
                 RCH =           0.0000                   RCH =           0.0000     RCH_0           

           TOTAL OUT = 15845382922.6352             TOTAL OUT =   142211693.2920

            IN - OUT =        2307.1852              IN - OUT =         -14.3427

 PERCENT DISCREPANCY =           0.00     PERCENT DISCREPANCY =          -0.00




         TIME SUMMARY AT END OF TIME STEP    1 IN STRESS PERIOD  138
                          TIME STEP LENGTH =    1.00000    
                        STRESS PERIOD TIME =    1.00000    
                     TOTAL SIMULATION TIME =    138.000    

end timestep


start timestep kper="139" kstp="1" mode="normal"


 OUTPUT CONTROL FOR STRESS PERIOD 139 IS REPEATED USING SETTINGS FROM A PREVIOUS STRESS PERIOD.


 STRESS PERIOD 139 IS TRANSIENT


 REUSING WELS FROM LAST STRESS PERIOD

 REUSING DRNS FROM LAST STRESS PERIOD

 REUSING RCHS FROM LAST STRESS PERIOD


  VOLUME BUDGET FOR ENTIRE MODEL AT END OF TIME STEP    1, STRESS PERIOD 139
  ---------------------------------------------------------------------------------------------------

     CUMULATIVE VOLUME      L**3       RATES FOR THIS TIME STEP      L**3/T          PACKAGE NAME    
     ------------------                 ------------------------                     ----------------

           IN:                                      IN:
           ---                                      ---
              STO-SS =           0.0000                STO-SS =           0.0000     STORAGE         
              STO-SY =  2793300635.1318                STO-SY =    15089856.3631     STORAGE         
                 WEL =           0.0000                   WEL =           0.0000     WEL_0           
                 DRN =           0.0000                   DRN =           0.0000     DRN_0           
                 RCH = 13191033300.7494                   RCH =   123858849.6978     RCH_0           

            TOTAL IN = 15984333935.8813              TOTAL IN =   138948706.0608

          OUT:                                     OUT:
          ----                                     ----
              STO-SS =           0.0000                STO-SS =           0.0000     STORAGE         
              STO-SY =  3649776740.0127                STO-SY =    13039058.7417     STORAGE         
                 WEL =  1079135748.0619                   WEL =     3630530.9333     WEL_0           
                 DRN = 11255419109.2720                   DRN =   122279085.0364     DRN_0           
                 RCH =           0.0000                   RCH =           0.0000     RCH_0           

           TOTAL OUT = 15984331597.3466             TOTAL OUT =   138948674.7114

            IN - OUT =        2338.5347              IN - OUT =          31.3494

 PERCENT DISCREPANCY =           0.00     PERCENT DISCREPANCY =           0.00




         TIME SUMMARY AT END OF TIME STEP    1 IN STRESS PERIOD  139
                          TIME STEP LENGTH =    1.00000    
                        STRESS PERIOD TIME =    1.00000    
                     TOTAL SIMULATION TIME =    139.000    

end timestep


start timestep kper="140" kstp="1" mode="normal"


 OUTPUT CONTROL FOR STRESS PERIOD 140 IS REPEATED USING SETTINGS FROM A PREVIOUS STRESS PERIOD.


 STRESS PERIOD 140 IS TRANSIENT


 REUSING WELS FROM LAST STRESS PERIOD

 REUSING DRNS FROM LAST STRESS PERIOD

 REUSING RCHS FROM LAST STRESS PERIOD


  VOLUME BUDGET FOR ENTIRE MODEL AT END OF TIME STEP    1, STRESS PERIOD 140
  ---------------------------------------------------------------------------------------------------

     CUMULATIVE VOLUME      L**3       RATES FOR THIS TIME STEP      L**3/T          PACKAGE NAME    
     ------------------                 ------------------------                     ----------------

           IN:                                      IN:
           ---                                      ---
              STO-SS =           0.0000                STO-SS =           0.0000     STORAGE         
              STO-SY =  2815684911.6406                STO-SY =    22384276.5088     STORAGE         
                 WEL =           0.0000                   WEL =           0.0000     WEL_0           
                 DRN =           0.0000                   DRN =           0.0000     DRN_0           
                 RCH = 13292559139.0123                   RCH =   101525838.2628     RCH_0           

            TOTAL IN = 16108244050.6529              TOTAL IN =   123910114.7716

          OUT:                                     OUT:
          ----                                     ----
              STO-SS =           0.0000                STO-SS =           0.0000     STORAGE         
              STO-SY =  3658257394.8157                STO-SY =     8480654.8030     STORAGE         
                 WEL =  1083194947.7283                   WEL =     4059199.6664     WEL_0           
                 DRN = 11366789269.4826                   DRN =   111370160.2106     DRN_0           
                 RCH =           0.0000                   RCH =           0.0000     RCH_0           

           TOTAL OUT = 16108241612.0266             TOTAL OUT =   123910014.6800

            IN - OUT =        2438.6263              IN - OUT =         100.0917

 PERCENT DISCREPANCY =           0.00     PERCENT DISCREPANCY =           0.00




         TIME SUMMARY AT END OF TIME STEP    1 IN STRESS PERIOD  140
                          TIME STEP LENGTH =    1.00000    
                        STRESS PERIOD TIME =    1.00000    
                     TOTAL SIMULATION TIME =    140.000    

end timestep


start timestep kper="141" kstp="1" mode="normal"


 OUTPUT CONTROL FOR STRESS PERIOD 141 IS REPEATED USING SETTINGS FROM A PREVIOUS STRESS PERIOD.


 STRESS PERIOD 141 IS TRANSIENT


 REUSING WELS FROM LAST STRESS PERIOD

 REUSING DRNS FROM LAST STRESS PERIOD

 REUSING RCHS FROM LAST STRESS PERIOD


  VOLUME BUDGET FOR ENTIRE MODEL AT END OF TIME STEP    1, STRESS PERIOD 141
  ---------------------------------------------------------------------------------------------------

     CUMULATIVE VOLUME      L**3       RATES FOR THIS TIME STEP      L**3/T          PACKAGE NAME    
     ------------------                 ------------------------                     ----------------

           IN:                                      IN:
           ---                                      ---
              STO-SS =           0.0000                STO-SS =           0.0000     STORAGE         
              STO-SY =  2834711060.0510                STO-SY =    19026148.4104     STORAGE         
                 WEL =           0.0000                   WEL =           0.0000     WEL_0           
                 DRN =           0.0000                   DRN =           0.0000     DRN_0           
                 RCH = 13425204824.7744                   RCH =   132645685.7622     RCH_0           

            TOTAL IN = 16259915884.8254              TOTAL IN =   151671834.1725

          OUT:                                     OUT:
          ----                                     ----
              STO-SS =           0.0000                STO-SS =           0.0000     STORAGE         
              STO-SY =  3678244598.3642                STO-SY =    19987203.5485     STORAGE         
                 WEL =  1087516091.6016                   WEL =     4321143.8733     WEL_0           
                 DRN = 11494152686.6803                   DRN =   127363417.1977     DRN_0           
                 RCH =           0.0000                   RCH =           0.0000     RCH_0           

           TOTAL OUT = 16259913376.6461             TOTAL OUT =   151671764.6195

            IN - OUT =        2508.1793              IN - OUT =          69.5530

 PERCENT DISCREPANCY =           0.00     PERCENT DISCREPANCY =           0.00




         TIME SUMMARY AT END OF TIME STEP    1 IN STRESS PERIOD  141
                          TIME STEP LENGTH =    1.00000    
                        STRESS PERIOD TIME =    1.00000    
                     TOTAL SIMULATION TIME =    141.000    

end timestep


start timestep kper="142" kstp="1" mode="normal"


 OUTPUT CONTROL FOR STRESS PERIOD 142 IS REPEATED USING SETTINGS FROM A PREVIOUS STRESS PERIOD.


 STRESS PERIOD 142 IS TRANSIENT


 REUSING WELS FROM LAST STRESS PERIOD

 REUSING DRNS FROM LAST STRESS PERIOD

 REUSING RCHS FROM LAST STRESS PERIOD


  VOLUME BUDGET FOR ENTIRE MODEL AT END OF TIME STEP    1, STRESS PERIOD 142
  ---------------------------------------------------------------------------------------------------

     CUMULATIVE VOLUME      L**3       RATES FOR THIS TIME STEP      L**3/T          PACKAGE NAME    
     ------------------                 ------------------------                     ----------------

           IN:                                      IN:
           ---                                      ---
              STO-SS =           0.0000                STO-SS =           0.0000     STORAGE         
              STO-SY =  2858998831.2793                STO-SY =    24287771.2283     STORAGE         
                 WEL =           0.0000                   WEL =           0.0000     WEL_0           
                 DRN =           0.0000                   DRN =           0.0000     DRN_0           
                 RCH = 13522987429.7395                   RCH =    97782604.9651     RCH_0           

            TOTAL IN = 16381986261.0188              TOTAL IN =   122070376.1934

          OUT:                                     OUT:
          ----                                     ----
              STO-SS =           0.0000                STO-SS =           0.0000     STORAGE         
              STO-SY =  3685934206.8974                STO-SY =     7689608.5332     STORAGE         
                 WEL =  1092454318.8474                   WEL =     4938227.2458     WEL_0           
                 DRN = 11603595192.9292                   DRN =   109442506.2488     DRN_0           
                 RCH =           0.0000                   RCH =           0.0000     RCH_0           

           TOTAL OUT = 16381983718.6740             TOTAL OUT =   122070342.0278

            IN - OUT =        2542.3449              IN - OUT =          34.1656

 PERCENT DISCREPANCY =           0.00     PERCENT DISCREPANCY =           0.00




         TIME SUMMARY AT END OF TIME STEP    1 IN STRESS PERIOD  142
                          TIME STEP LENGTH =    1.00000    
                        STRESS PERIOD TIME =    1.00000    
                     TOTAL SIMULATION TIME =    142.000    

end timestep


start timestep kper="143" kstp="1" mode="normal"


 OUTPUT CONTROL FOR STRESS PERIOD 143 IS REPEATED USING SETTINGS FROM A PREVIOUS STRESS PERIOD.


 STRESS PERIOD 143 IS TRANSIENT


 REUSING WELS FROM LAST STRESS PERIOD

 REUSING DRNS FROM LAST STRESS PERIOD

 REUSING RCHS FROM LAST STRESS PERIOD


  VOLUME BUDGET FOR ENTIRE MODEL AT END OF TIME STEP    1, STRESS PERIOD 143
  ---------------------------------------------------------------------------------------------------

     CUMULATIVE VOLUME      L**3       RATES FOR THIS TIME STEP      L**3/T          PACKAGE NAME    
     ------------------                 ------------------------                     ----------------

           IN:                                      IN:
           ---                                      ---
              STO-SS =           0.0000                STO-SS =           0.0000     STORAGE         
              STO-SY =  2883820729.2321                STO-SY =    24821897.9528     STORAGE         
                 WEL =           0.0000                   WEL =           0.0000     WEL_0           
                 DRN =           0.0000                   DRN =           0.0000     DRN_0           
                 RCH = 13619971513.0767                   RCH =    96984083.3372     RCH_0           

            TOTAL IN = 16503792242.3088              TOTAL IN =   121805981.2899

          OUT:                                     OUT:
          ----                                     ----
              STO-SS =           0.0000                STO-SS =           0.0000     STORAGE         
              STO-SY =  3693627060.3809                STO-SY =     7692853.4835     STORAGE         
                 WEL =  1097696497.5223                   WEL =     5242178.6749     WEL_0           
                 DRN = 11712466134.5090                   DRN =   108870941.5798     DRN_0           
                 RCH =           0.0000                   RCH =           0.0000     RCH_0           

           TOTAL OUT = 16503789692.4122             TOTAL OUT =   121805973.7382

            IN - OUT =        2549.8966              IN - OUT =           7.5517

 PERCENT DISCREPANCY =           0.00     PERCENT DISCREPANCY =           0.00




         TIME SUMMARY AT END OF TIME STEP    1 IN STRESS PERIOD  143
                          TIME STEP LENGTH =    1.00000    
                        STRESS PERIOD TIME =    1.00000    
                     TOTAL SIMULATION TIME =    143.000    

end timestep


start timestep kper="144" kstp="1" mode="normal"


 OUTPUT CONTROL FOR STRESS PERIOD 144 IS REPEATED USING SETTINGS FROM A PREVIOUS STRESS PERIOD.


 STRESS PERIOD 144 IS TRANSIENT


 REUSING WELS FROM LAST STRESS PERIOD

 REUSING DRNS FROM LAST STRESS PERIOD

 REUSING RCHS FROM LAST STRESS PERIOD


  VOLUME BUDGET FOR ENTIRE MODEL AT END OF TIME STEP    1, STRESS PERIOD 144
  ---------------------------------------------------------------------------------------------------

     CUMULATIVE VOLUME      L**3       RATES FOR THIS TIME STEP      L**3/T          PACKAGE NAME    
     ------------------                 ------------------------                     ----------------

           IN:                                      IN:
           ---                                      ---
              STO-SS =           0.0000                STO-SS =           0.0000     STORAGE         
              STO-SY =  2910581810.8110                STO-SY =    26761081.5789     STORAGE         
                 WEL =           0.0000                   WEL =           0.0000     WEL_0           
                 DRN =           0.0000                   DRN =           0.0000     DRN_0           
                 RCH = 13706382596.3173                   RCH =    86411083.2406     RCH_0           

            TOTAL IN = 16616964407.1283              TOTAL IN =   113172164.8195

          OUT:                                     OUT:
          ----                                     ----
              STO-SS =           0.0000                STO-SS =           0.0000     STORAGE         
              STO-SY =  3699676119.9976                STO-SY =     6049059.6166     STORAGE         
                 WEL =  1103204737.0675                   WEL =     5508239.5452     WEL_0           
                 DRN = 11814080931.6694                   DRN =   101614797.1604     DRN_0           
                 RCH =           0.0000                   RCH =           0.0000     RCH_0           

           TOTAL OUT = 16616961788.7344             TOTAL OUT =   113172096.3223

            IN - OUT =        2618.3938              IN - OUT =          68.4973

 PERCENT DISCREPANCY =           0.00     PERCENT DISCREPANCY =           0.00




         TIME SUMMARY AT END OF TIME STEP    1 IN STRESS PERIOD  144
                          TIME STEP LENGTH =    1.00000    
                        STRESS PERIOD TIME =    1.00000    
                     TOTAL SIMULATION TIME =    144.000    

end timestep


start timestep kper="145" kstp="1" mode="normal"


 OUTPUT CONTROL FOR STRESS PERIOD 145 IS REPEATED USING SETTINGS FROM A PREVIOUS STRESS PERIOD.


 STRESS PERIOD 145 IS TRANSIENT


 REUSING WELS FROM LAST STRESS PERIOD

 REUSING DRNS FROM LAST STRESS PERIOD

 REUSING RCHS FROM LAST STRESS PERIOD


  VOLUME BUDGET FOR ENTIRE MODEL AT END OF TIME STEP    1, STRESS PERIOD 145
  ---------------------------------------------------------------------------------------------------

     CUMULATIVE VOLUME      L**3       RATES FOR THIS TIME STEP      L**3/T          PACKAGE NAME    
     ------------------                 ------------------------                     ----------------

           IN:                                      IN:
           ---                                      ---
              STO-SS =           0.0000                STO-SS =           0.0000     STORAGE         
              STO-SY =  2936415909.2905                STO-SY =    25834098.4795     STORAGE         
                 WEL =           0.0000                   WEL =           0.0000     WEL_0           
                 DRN =           0.0000                   DRN =           0.0000     DRN_0           
                 RCH = 13794700169.0803                   RCH =    88317572.7630     RCH_0           

            TOTAL IN = 16731116078.3708              TOTAL IN =   114151671.2425

          OUT:                                     OUT:
          ----                                     ----
              STO-SS =           0.0000                STO-SS =           0.0000     STORAGE         
              STO-SY =  3706588499.3940                STO-SY =     6912379.3965     STORAGE         
                 WEL =  1109055802.4960                   WEL =     5851065.4285     WEL_0           
                 DRN = 11915469010.9870                   DRN =   101388079.3176     DRN_0           
                 RCH =           0.0000                   RCH =           0.0000     RCH_0           

           TOTAL OUT = 16731113312.8770             TOTAL OUT =   114151524.1426

            IN - OUT =        2765.4938              IN - OUT =         147.1000

 PERCENT DISCREPANCY =           0.00     PERCENT DISCREPANCY =           0.00




         TIME SUMMARY AT END OF TIME STEP    1 IN STRESS PERIOD  145
                          TIME STEP LENGTH =    1.00000    
                        STRESS PERIOD TIME =    1.00000    
                     TOTAL SIMULATION TIME =    145.000    

end timestep


start timestep kper="146" kstp="1" mode="normal"


 OUTPUT CONTROL FOR STRESS PERIOD 146 IS REPEATED USING SETTINGS FROM A PREVIOUS STRESS PERIOD.


 STRESS PERIOD 146 IS TRANSIENT


 REUSING WELS FROM LAST STRESS PERIOD

 REUSING DRNS FROM LAST STRESS PERIOD

 REUSING RCHS FROM LAST STRESS PERIOD


  VOLUME BUDGET FOR ENTIRE MODEL AT END OF TIME STEP    1, STRESS PERIOD 146
  ---------------------------------------------------------------------------------------------------

     CUMULATIVE VOLUME      L**3       RATES FOR THIS TIME STEP      L**3/T          PACKAGE NAME    
     ------------------                 ------------------------                     ----------------

           IN:                                      IN:
           ---                                      ---
              STO-SS =           0.0000                STO-SS =           0.0000     STORAGE         
              STO-SY =  2964165681.7360                STO-SY =    27749772.4456     STORAGE         
                 WEL =           0.0000                   WEL =           0.0000     WEL_0           
                 DRN =           0.0000                   DRN =           0.0000     DRN_0           
                 RCH = 13874511083.3499                   RCH =    79810914.2696     RCH_0           

            TOTAL IN = 16838676765.0859              TOTAL IN =   107560686.7151

          OUT:                                     OUT:
          ----                                     ----
              STO-SS =           0.0000                STO-SS =           0.0000     STORAGE         
              STO-SY =  3711922442.3027                STO-SY =     5333942.9087     STORAGE         
                 WEL =  1115122781.0057                   WEL =     6066978.5097     WEL_0           
                 DRN = 12011628750.0602                   DRN =    96159739.0732     DRN_0           
                 RCH =           0.0000                   RCH =           0.0000     RCH_0           

           TOTAL OUT = 16838673973.3686             TOTAL OUT =   107560660.4916

            IN - OUT =        2791.7173              IN - OUT =          26.2235

 PERCENT DISCREPANCY =           0.00     PERCENT DISCREPANCY =           0.00




         TIME SUMMARY AT END OF TIME STEP    1 IN STRESS PERIOD  146
                          TIME STEP LENGTH =    1.00000    
                        STRESS PERIOD TIME =    1.00000    
                     TOTAL SIMULATION TIME =    146.000    

end timestep


start timestep kper="147" kstp="1" mode="normal"


 OUTPUT CONTROL FOR STRESS PERIOD 147 IS REPEATED USING SETTINGS FROM A PREVIOUS STRESS PERIOD.


 STRESS PERIOD 147 IS TRANSIENT


 REUSING WELS FROM LAST STRESS PERIOD

 REUSING DRNS FROM LAST STRESS PERIOD

 REUSING RCHS FROM LAST STRESS PERIOD


  VOLUME BUDGET FOR ENTIRE MODEL AT END OF TIME STEP    1, STRESS PERIOD 147
  ---------------------------------------------------------------------------------------------------

     CUMULATIVE VOLUME      L**3       RATES FOR THIS TIME STEP      L**3/T          PACKAGE NAME    
     ------------------                 ------------------------                     ----------------

           IN:                                      IN:
           ---                                      ---
              STO-SS =           0.0000                STO-SS =           0.0000     STORAGE         
              STO-SY =  2990768866.2547                STO-SY =    26603184.5186     STORAGE         
                 WEL =           0.0000                   WEL =           0.0000     WEL_0           
                 DRN =           0.0000                   DRN =           0.0000     DRN_0           
                 RCH = 13955831741.0430                   RCH =    81320657.6932     RCH_0           

            TOTAL IN = 16946600607.2977              TOTAL IN =   107923842.2118

          OUT:                                     OUT:
          ----                                     ----
              STO-SS =           0.0000                STO-SS =           0.0000     STORAGE         
              STO-SY =  3718377291.6098                STO-SY =     6454849.3070     STORAGE         
                 WEL =  1121379225.8958                   WEL =     6256444.8901     WEL_0           
                 DRN = 12106841276.8767                   DRN =    95212526.8166     DRN_0           
                 RCH =           0.0000                   RCH =           0.0000     RCH_0           

           TOTAL OUT = 16946597794.3823             TOTAL OUT =   107923821.0137

            IN - OUT =        2812.9154              IN - OUT =          21.1981

 PERCENT DISCREPANCY =           0.00     PERCENT DISCREPANCY =           0.00




         TIME SUMMARY AT END OF TIME STEP    1 IN STRESS PERIOD  147
                          TIME STEP LENGTH =    1.00000    
                        STRESS PERIOD TIME =    1.00000    
                     TOTAL SIMULATION TIME =    147.000    

end timestep


start timestep kper="148" kstp="1" mode="normal"


 OUTPUT CONTROL FOR STRESS PERIOD 148 IS REPEATED USING SETTINGS FROM A PREVIOUS STRESS PERIOD.


 STRESS PERIOD 148 IS TRANSIENT


 REUSING WELS FROM LAST STRESS PERIOD

 REUSING DRNS FROM LAST STRESS PERIOD

 REUSING RCHS FROM LAST STRESS PERIOD


  VOLUME BUDGET FOR ENTIRE MODEL AT END OF TIME STEP    1, STRESS PERIOD 148
  ---------------------------------------------------------------------------------------------------

     CUMULATIVE VOLUME      L**3       RATES FOR THIS TIME STEP      L**3/T          PACKAGE NAME    
     ------------------                 ------------------------                     ----------------

           IN:                                      IN:
           ---                                      ---
              STO-SS =           0.0000                STO-SS =           0.0000     STORAGE         
              STO-SY =  3018945194.6947                STO-SY =    28176328.4400     STORAGE         
                 WEL =           0.0000                   WEL =           0.0000     WEL_0           
                 DRN =           0.0000                   DRN =           0.0000     DRN_0           
                 RCH = 14030444017.0424                   RCH =    74612275.9993     RCH_0           

            TOTAL IN = 17049389211.7371              TOTAL IN =   102788604.4394

          OUT:                                     OUT:
          ----                                     ----
              STO-SS =           0.0000                STO-SS =           0.0000     STORAGE         
              STO-SY =  3723268395.4249                STO-SY =     4891103.8151     STORAGE         
                 WEL =  1127809963.2504                   WEL =     6430737.3546     WEL_0           
                 DRN = 12198307983.3763                   DRN =    91466706.4995     DRN_0           
                 RCH =           0.0000                   RCH =           0.0000     RCH_0           

           TOTAL OUT = 17049386342.0515             TOTAL OUT =   102788547.6693

            IN - OUT =        2869.6855              IN - OUT =          56.7701

 PERCENT DISCREPANCY =           0.00     PERCENT DISCREPANCY =           0.00




         TIME SUMMARY AT END OF TIME STEP    1 IN STRESS PERIOD  148
                          TIME STEP LENGTH =    1.00000    
                        STRESS PERIOD TIME =    1.00000    
                     TOTAL SIMULATION TIME =    148.000    

end timestep


start timestep kper="149" kstp="1" mode="normal"


 OUTPUT CONTROL FOR STRESS PERIOD 149 IS REPEATED USING SETTINGS FROM A PREVIOUS STRESS PERIOD.


 STRESS PERIOD 149 IS TRANSIENT


 REUSING WELS FROM LAST STRESS PERIOD

 REUSING DRNS FROM LAST STRESS PERIOD

 REUSING RCHS FROM LAST STRESS PERIOD


  VOLUME BUDGET FOR ENTIRE MODEL AT END OF TIME STEP    1, STRESS PERIOD 149
  ---------------------------------------------------------------------------------------------------

     CUMULATIVE VOLUME      L**3       RATES FOR THIS TIME STEP      L**3/T          PACKAGE NAME    
     ------------------                 ------------------------                     ----------------

           IN:                                      IN:
           ---                                      ---
              STO-SS =           0.0000                STO-SS =           0.0000     STORAGE         
              STO-SY =  3045548625.1322                STO-SY =    26603430.4375     STORAGE         
                 WEL =           0.0000                   WEL =           0.0000     WEL_0           
                 DRN =           0.0000                   DRN =           0.0000     DRN_0           
                 RCH = 14106837257.6779                   RCH =    76393240.6355     RCH_0           

            TOTAL IN = 17152385882.8101              TOTAL IN =   102996671.0730

          OUT:                                     OUT:
          ----                                     ----
              STO-SS =           0.0000                STO-SS =           0.0000     STORAGE         
              STO-SY =  3729331418.3469                STO-SY =     6063022.9220     STORAGE         
                 WEL =  1134330942.7946                   WEL =     6520979.5442     WEL_0           
                 DRN = 12288720619.0310                   DRN =    90412635.6548     DRN_0           
                 RCH =           0.0000                   RCH =           0.0000     RCH_0           

           TOTAL OUT = 17152382980.1725             TOTAL OUT =   102996638.1209

            IN - OUT =        2902.6376              IN - OUT =          32.9521

 PERCENT DISCREPANCY =           0.00     PERCENT DISCREPANCY =           0.00




         TIME SUMMARY AT END OF TIME STEP    1 IN STRESS PERIOD  149
                          TIME STEP LENGTH =    1.00000    
                        STRESS PERIOD TIME =    1.00000    
                     TOTAL SIMULATION TIME =    149.000    

end timestep


start timestep kper="150" kstp="1" mode="normal"


 OUTPUT CONTROL FOR STRESS PERIOD 150 IS REPEATED USING SETTINGS FROM A PREVIOUS STRESS PERIOD.


 STRESS PERIOD 150 IS TRANSIENT


 REUSING WELS FROM LAST STRESS PERIOD

 REUSING DRNS FROM LAST STRESS PERIOD

 REUSING RCHS FROM LAST STRESS PERIOD


  VOLUME BUDGET FOR ENTIRE MODEL AT END OF TIME STEP    1, STRESS PERIOD 150
  ---------------------------------------------------------------------------------------------------

     CUMULATIVE VOLUME      L**3       RATES FOR THIS TIME STEP      L**3/T          PACKAGE NAME    
     ------------------                 ------------------------                     ----------------

           IN:                                      IN:
           ---                                      ---
              STO-SS =           0.0000                STO-SS =           0.0000     STORAGE         
              STO-SY =  3073185343.5626                STO-SY =    27636718.4304     STORAGE         
                 WEL =           0.0000                   WEL =           0.0000     WEL_0           
                 DRN =           0.0000                   DRN =           0.0000     DRN_0           
                 RCH = 14178585422.3519                   RCH =    71748164.6740     RCH_0           

            TOTAL IN = 17251770765.9145              TOTAL IN =    99384883.1044

          OUT:                                     OUT:
          ----                                     ----
              STO-SS =           0.0000                STO-SS =           0.0000     STORAGE         
              STO-SY =  3734122864.1067                STO-SY =     4791445.7598     STORAGE         
                 WEL =  1140908832.7824                   WEL =     6577889.9879     WEL_0           
                 DRN = 12376736103.4329                   DRN =    88015484.4019     DRN_0           
                 RCH =           0.0000                   RCH =           0.0000     RCH_0           

           TOTAL OUT = 17251767800.3221             TOTAL OUT =    99384820.1496

            IN - OUT =        2965.5924              IN - OUT =          62.9548

 PERCENT DISCREPANCY =           0.00     PERCENT DISCREPANCY =           0.00




         TIME SUMMARY AT END OF TIME STEP    1 IN STRESS PERIOD  150
                          TIME STEP LENGTH =    1.00000    
                        STRESS PERIOD TIME =    1.00000    
                     TOTAL SIMULATION TIME =    150.000    

end timestep


start timestep kper="151" kstp="1" mode="normal"


 OUTPUT CONTROL FOR STRESS PERIOD 151 IS REPEATED USING SETTINGS FROM A PREVIOUS STRESS PERIOD.


 STRESS PERIOD 151 IS TRANSIENT


 REUSING WELS FROM LAST STRESS PERIOD

 REUSING DRNS FROM LAST STRESS PERIOD

 REUSING RCHS FROM LAST STRESS PERIOD


  VOLUME BUDGET FOR ENTIRE MODEL AT END OF TIME STEP    1, STRESS PERIOD 151
  ---------------------------------------------------------------------------------------------------

     CUMULATIVE VOLUME      L**3       RATES FOR THIS TIME STEP      L**3/T          PACKAGE NAME    
     ------------------                 ------------------------                     ----------------

           IN:                                      IN:
           ---                                      ---
              STO-SS =           0.0000                STO-SS =           0.0000     STORAGE         
              STO-SY =  3099444438.3157                STO-SY =    26259094.7530     STORAGE         
                 WEL =           0.0000                   WEL =           0.0000     WEL_0           
                 DRN =           0.0000                   DRN =           0.0000     DRN_0           
                 RCH = 14251501636.1348                   RCH =    72916213.7829     RCH_0           

            TOTAL IN = 17350946074.4505              TOTAL IN =    99175308.5360

          OUT:                                     OUT:
          ----                                     ----
              STO-SS =           0.0000                STO-SS =           0.0000     STORAGE         
              STO-SY =  3739898560.4546                STO-SY =     5775696.3479     STORAGE         
                 WEL =  1147449890.1717                   WEL =     6541057.3893     WEL_0           
                 DRN = 12463594594.5841                   DRN =    86858491.1512     DRN_0           
                 RCH =           0.0000                   RCH =           0.0000     RCH_0           

           TOTAL OUT = 17350943045.2104             TOTAL OUT =    99175244.8883

            IN - OUT =        3029.2401              IN - OUT =          63.6476

 PERCENT DISCREPANCY =           0.00     PERCENT DISCREPANCY =           0.00




         TIME SUMMARY AT END OF TIME STEP    1 IN STRESS PERIOD  151
                          TIME STEP LENGTH =    1.00000    
                        STRESS PERIOD TIME =    1.00000    
                     TOTAL SIMULATION TIME =    151.000    

end timestep


start timestep kper="152" kstp="1" mode="normal"


 OUTPUT CONTROL FOR STRESS PERIOD 152 IS REPEATED USING SETTINGS FROM A PREVIOUS STRESS PERIOD.


 STRESS PERIOD 152 IS TRANSIENT


 REUSING WELS FROM LAST STRESS PERIOD

 REUSING DRNS FROM LAST STRESS PERIOD

 REUSING RCHS FROM LAST STRESS PERIOD


  VOLUME BUDGET FOR ENTIRE MODEL AT END OF TIME STEP    1, STRESS PERIOD 152
  ---------------------------------------------------------------------------------------------------

     CUMULATIVE VOLUME      L**3       RATES FOR THIS TIME STEP      L**3/T          PACKAGE NAME    
     ------------------                 ------------------------                     ----------------

           IN:                                      IN:
           ---                                      ---
              STO-SS =           0.0000                STO-SS =           0.0000     STORAGE         
              STO-SY =  3126745628.9358                STO-SY =    27301190.6201     STORAGE         
                 WEL =           0.0000                   WEL =           0.0000     WEL_0           
                 DRN =           0.0000                   DRN =           0.0000     DRN_0           
                 RCH = 14319853451.0179                   RCH =    68351814.8831     RCH_0           

            TOTAL IN = 17446599079.9536              TOTAL IN =    95653005.5032

          OUT:                                     OUT:
          ----                                     ----
              STO-SS =           0.0000                STO-SS =           0.0000     STORAGE         
              STO-SY =  3744500440.2094                STO-SY =     4601879.7548     STORAGE         
                 WEL =  1153919567.0854                   WEL =     6469676.9136     WEL_0           
                 DRN = 12548175965.0736                   DRN =    84581370.4895     DRN_0           
                 RCH =           0.0000                   RCH =           0.0000     RCH_0           

           TOTAL OUT = 17446595972.3683             TOTAL OUT =    95652927.1580

            IN - OUT =        3107.5853              IN - OUT =          78.3452

 PERCENT DISCREPANCY =           0.00     PERCENT DISCREPANCY =           0.00




         TIME SUMMARY AT END OF TIME STEP    1 IN STRESS PERIOD  152
                          TIME STEP LENGTH =    1.00000    
                        STRESS PERIOD TIME =    1.00000    
                     TOTAL SIMULATION TIME =    152.000    

end timestep


start timestep kper="153" kstp="1" mode="normal"


 OUTPUT CONTROL FOR STRESS PERIOD 153 IS REPEATED USING SETTINGS FROM A PREVIOUS STRESS PERIOD.


 STRESS PERIOD 153 IS TRANSIENT


 REUSING WELS FROM LAST STRESS PERIOD

 REUSING DRNS FROM LAST STRESS PERIOD

 REUSING RCHS FROM LAST STRESS PERIOD


  VOLUME BUDGET FOR ENTIRE MODEL AT END OF TIME STEP    1, STRESS PERIOD 153
  ---------------------------------------------------------------------------------------------------

     CUMULATIVE VOLUME      L**3       RATES FOR THIS TIME STEP      L**3/T          PACKAGE NAME    
     ------------------                 ------------------------                     ----------------

           IN:                                      IN:
           ---                                      ---
              STO-SS =           0.0000                STO-SS =           0.0000     STORAGE         
              STO-SY =  3153484038.4312                STO-SY =    26738409.4954     STORAGE         
                 WEL =           0.0000                   WEL =           0.0000     WEL_0           
                 DRN =           0.0000                   DRN =           0.0000     DRN_0           
                 RCH = 14387377787.6596                   RCH =    67524336.6417     RCH_0           

            TOTAL IN = 17540861826.0908              TOTAL IN =    94262746.1372

          OUT:                                     OUT:
          ----                                     ----
              STO-SS =           0.0000                STO-SS =           0.0000     STORAGE         
              STO-SY =  3749891484.2623                STO-SY =     5391044.0529     STORAGE         
                 WEL =  1160325777.2803                   WEL =     6406210.1950     WEL_0           
                 DRN = 12630641482.8201                   DRN =    82465517.7465     DRN_0           
                 RCH =           0.0000                   RCH =           0.0000     RCH_0           

           TOTAL OUT = 17540858744.3627             TOTAL OUT =    94262771.9944

            IN - OUT =        3081.7281              IN - OUT =         -25.8572

 PERCENT DISCREPANCY =           0.00     PERCENT DISCREPANCY =          -0.00




         TIME SUMMARY AT END OF TIME STEP    1 IN STRESS PERIOD  153
                          TIME STEP LENGTH =    1.00000    
                        STRESS PERIOD TIME =    1.00000    
                     TOTAL SIMULATION TIME =    153.000    

end timestep


start timestep kper="154" kstp="1" mode="normal"


 OUTPUT CONTROL FOR STRESS PERIOD 154 IS REPEATED USING SETTINGS FROM A PREVIOUS STRESS PERIOD.


 STRESS PERIOD 154 IS TRANSIENT


 REUSING WELS FROM LAST STRESS PERIOD

 REUSING DRNS FROM LAST STRESS PERIOD

 REUSING RCHS FROM LAST STRESS PERIOD


  VOLUME BUDGET FOR ENTIRE MODEL AT END OF TIME STEP    1, STRESS PERIOD 154
  ---------------------------------------------------------------------------------------------------

     CUMULATIVE VOLUME      L**3       RATES FOR THIS TIME STEP      L**3/T          PACKAGE NAME    
     ------------------                 ------------------------                     ----------------

           IN:                                      IN:
           ---                                      ---
              STO-SS =           0.0000                STO-SS =           0.0000     STORAGE         
              STO-SY =  3180922658.9143                STO-SY =    27438620.4831     STORAGE         
                 WEL =           0.0000                   WEL =           0.0000     WEL_0           
                 DRN =           0.0000                   DRN =           0.0000     DRN_0           
                 RCH = 14450893818.3431                   RCH =    63516030.6835     RCH_0           

            TOTAL IN = 17631816477.2574              TOTAL IN =    90954651.1666

          OUT:                                     OUT:
          ----                                     ----
              STO-SS =           0.0000                STO-SS =           0.0000     STORAGE         
              STO-SY =  3754198458.2862                STO-SY =     4306974.0239     STORAGE         
                 WEL =  1166903599.9795                   WEL =     6577822.6992     WEL_0           
                 DRN = 12710711255.3657                   DRN =    80069772.5456     DRN_0           
                 RCH =           0.0000                   RCH =           0.0000     RCH_0           

           TOTAL OUT = 17631813313.6313             TOTAL OUT =    90954569.2686

            IN - OUT =        3163.6261              IN - OUT =          81.8980

 PERCENT DISCREPANCY =           0.00     PERCENT DISCREPANCY =           0.00




         TIME SUMMARY AT END OF TIME STEP    1 IN STRESS PERIOD  154
                          TIME STEP LENGTH =    1.00000    
                        STRESS PERIOD TIME =    1.00000    
                     TOTAL SIMULATION TIME =    154.000    

end timestep


start timestep kper="155" kstp="1" mode="normal"


 OUTPUT CONTROL FOR STRESS PERIOD 155 IS REPEATED USING SETTINGS FROM A PREVIOUS STRESS PERIOD.


 STRESS PERIOD 155 IS TRANSIENT


 REUSING WELS FROM LAST STRESS PERIOD

 REUSING DRNS FROM LAST STRESS PERIOD

 REUSING RCHS FROM LAST STRESS PERIOD


  VOLUME BUDGET FOR ENTIRE MODEL AT END OF TIME STEP    1, STRESS PERIOD 155
  ---------------------------------------------------------------------------------------------------

     CUMULATIVE VOLUME      L**3       RATES FOR THIS TIME STEP      L**3/T          PACKAGE NAME    
     ------------------                 ------------------------                     ----------------

           IN:                                      IN:
           ---                                      ---
              STO-SS =           0.0000                STO-SS =           0.0000     STORAGE         
              STO-SY =  3207776150.5009                STO-SY =    26853491.5866     STORAGE         
                 WEL =           0.0000                   WEL =           0.0000     WEL_0           
                 DRN =           0.0000                   DRN =           0.0000     DRN_0           
                 RCH = 14513189861.8402                   RCH =    62296043.4970     RCH_0           

            TOTAL IN = 17720966012.3410              TOTAL IN =    89149535.0836

          OUT:                                     OUT:
          ----                                     ----
              STO-SS =           0.0000                STO-SS =           0.0000     STORAGE         
              STO-SY =  3759138971.0175                STO-SY =     4940512.7313     STORAGE         
                 WEL =  1173467086.2520                   WEL =     6563486.2726     WEL_0           
                 DRN = 12788356725.0916                   DRN =    77645469.7259     DRN_0           
                 RCH =           0.0000                   RCH =           0.0000     RCH_0           

           TOTAL OUT = 17720962782.3611             TOTAL OUT =    89149468.7298

            IN - OUT =        3229.9799              IN - OUT =          66.3538

 PERCENT DISCREPANCY =           0.00     PERCENT DISCREPANCY =           0.00




         TIME SUMMARY AT END OF TIME STEP    1 IN STRESS PERIOD  155
                          TIME STEP LENGTH =    1.00000    
                        STRESS PERIOD TIME =    1.00000    
                     TOTAL SIMULATION TIME =    155.000    

end timestep


start timestep kper="156" kstp="1" mode="normal"


 OUTPUT CONTROL FOR STRESS PERIOD 156 IS REPEATED USING SETTINGS FROM A PREVIOUS STRESS PERIOD.


 STRESS PERIOD 156 IS TRANSIENT


 REUSING WELS FROM LAST STRESS PERIOD

 REUSING DRNS FROM LAST STRESS PERIOD

 REUSING RCHS FROM LAST STRESS PERIOD


  VOLUME BUDGET FOR ENTIRE MODEL AT END OF TIME STEP    1, STRESS PERIOD 156
  ---------------------------------------------------------------------------------------------------

     CUMULATIVE VOLUME      L**3       RATES FOR THIS TIME STEP      L**3/T          PACKAGE NAME    
     ------------------                 ------------------------                     ----------------

           IN:                                      IN:
           ---                                      ---
              STO-SS =           0.0000                STO-SS =           0.0000     STORAGE         
              STO-SY =  3235409141.5159                STO-SY =    27632991.0150     STORAGE         
                 WEL =           0.0000                   WEL =           0.0000     WEL_0           
                 DRN =           0.0000                   DRN =           0.0000     DRN_0           
                 RCH = 14572381144.5966                   RCH =    59191282.7564     RCH_0           

            TOTAL IN = 17807790286.1125              TOTAL IN =    86824273.7714

          OUT:                                     OUT:
          ----                                     ----
              STO-SS =           0.0000                STO-SS =           0.0000     STORAGE         
              STO-SY =  3763186825.1509                STO-SY =     4047854.1334     STORAGE         
                 WEL =  1179991806.5023                   WEL =     6524720.2502     WEL_0           
                 DRN = 12864608333.8315                   DRN =    76251608.7399     DRN_0           
                 RCH =           0.0000                   RCH =           0.0000     RCH_0           

           TOTAL OUT = 17807786965.4846             TOTAL OUT =    86824183.1235

            IN - OUT =        3320.6278              IN - OUT =          90.6479

 PERCENT DISCREPANCY =           0.00     PERCENT DISCREPANCY =           0.00




         TIME SUMMARY AT END OF TIME STEP    1 IN STRESS PERIOD  156
                          TIME STEP LENGTH =    1.00000    
                        STRESS PERIOD TIME =    1.00000    
                     TOTAL SIMULATION TIME =    156.000    

end timestep


start timestep kper="157" kstp="1" mode="normal"


 OUTPUT CONTROL FOR STRESS PERIOD 157 IS REPEATED USING SETTINGS FROM A PREVIOUS STRESS PERIOD.


 STRESS PERIOD 157 IS TRANSIENT


 REUSING WELS FROM LAST STRESS PERIOD

 REUSING DRNS FROM LAST STRESS PERIOD

 REUSING RCHS FROM LAST STRESS PERIOD


  VOLUME BUDGET FOR ENTIRE MODEL AT END OF TIME STEP    1, STRESS PERIOD 157
  ---------------------------------------------------------------------------------------------------

     CUMULATIVE VOLUME      L**3       RATES FOR THIS TIME STEP      L**3/T          PACKAGE NAME    
     ------------------                 ------------------------                     ----------------

           IN:                                      IN:
           ---                                      ---
              STO-SS =           0.0000                STO-SS =           0.0000     STORAGE         
              STO-SY =  3262232991.8962                STO-SY =    26823850.3803     STORAGE         
                 WEL =           0.0000                   WEL =           0.0000     WEL_0           
                 DRN =           0.0000                   DRN =           0.0000     DRN_0           
                 RCH = 14630597437.8527                   RCH =    58216293.2561     RCH_0           

            TOTAL IN = 17892830429.7488              TOTAL IN =    85040143.6364

          OUT:                                     OUT:
          ----                                     ----
              STO-SS =           0.0000                STO-SS =           0.0000     STORAGE         
              STO-SY =  3767845356.0241                STO-SY =     4658530.8732     STORAGE         
                 WEL =  1186530055.3671                   WEL =     6538248.8649     WEL_0           
                 DRN = 12938451600.8828                   DRN =    73843267.0513     DRN_0           
                 RCH =           0.0000                   RCH =           0.0000     RCH_0           

           TOTAL OUT = 17892827012.2740             TOTAL OUT =    85040046.7894

            IN - OUT =        3417.4748              IN - OUT =          96.8469

 PERCENT DISCREPANCY =           0.00     PERCENT DISCREPANCY =           0.00




         TIME SUMMARY AT END OF TIME STEP    1 IN STRESS PERIOD  157
                          TIME STEP LENGTH =    1.00000    
                        STRESS PERIOD TIME =    1.00000    
                     TOTAL SIMULATION TIME =    157.000    

end timestep


start timestep kper="158" kstp="1" mode="normal"


 OUTPUT CONTROL FOR STRESS PERIOD 158 IS REPEATED USING SETTINGS FROM A PREVIOUS STRESS PERIOD.


 STRESS PERIOD 158 IS TRANSIENT


 REUSING WELS FROM LAST STRESS PERIOD

 REUSING DRNS FROM LAST STRESS PERIOD

 REUSING RCHS FROM LAST STRESS PERIOD


  VOLUME BUDGET FOR ENTIRE MODEL AT END OF TIME STEP    1, STRESS PERIOD 158
  ---------------------------------------------------------------------------------------------------

     CUMULATIVE VOLUME      L**3       RATES FOR THIS TIME STEP      L**3/T          PACKAGE NAME    
     ------------------                 ------------------------                     ----------------

           IN:                                      IN:
           ---                                      ---
              STO-SS =           0.0000                STO-SS =           0.0000     STORAGE         
              STO-SY =  3289853791.6604                STO-SY =    27620799.7642     STORAGE         
                 WEL =           0.0000                   WEL =           0.0000     WEL_0           
                 DRN =           0.0000                   DRN =           0.0000     DRN_0           
                 RCH = 14686125109.1714                   RCH =    55527671.3188     RCH_0           

            TOTAL IN = 17975978900.8318              TOTAL IN =    83148471.0830

          OUT:                                     OUT:
          ----                                     ----
              STO-SS =           0.0000                STO-SS =           0.0000     STORAGE         
              STO-SY =  3771646796.5886                STO-SY =     3801440.5645     STORAGE         
                 WEL =  1193105588.4190                   WEL =     6575533.0519     WEL_0           
                 DRN = 13011223057.4404                   DRN =    72771456.5576     DRN_0           
                 RCH =           0.0000                   RCH =           0.0000     RCH_0           

           TOTAL OUT = 17975975442.4480             TOTAL OUT =    83148430.1740

            IN - OUT =        3458.3838              IN - OUT =          40.9090

 PERCENT DISCREPANCY =           0.00     PERCENT DISCREPANCY =           0.00




         TIME SUMMARY AT END OF TIME STEP    1 IN STRESS PERIOD  158
                          TIME STEP LENGTH =    1.00000    
                        STRESS PERIOD TIME =    1.00000    
                     TOTAL SIMULATION TIME =    158.000    

end timestep


start timestep kper="159" kstp="1" mode="normal"


 OUTPUT CONTROL FOR STRESS PERIOD 159 IS REPEATED USING SETTINGS FROM A PREVIOUS STRESS PERIOD.


 STRESS PERIOD 159 IS TRANSIENT


 REUSING WELS FROM LAST STRESS PERIOD

 REUSING DRNS FROM LAST STRESS PERIOD

 REUSING RCHS FROM LAST STRESS PERIOD


  VOLUME BUDGET FOR ENTIRE MODEL AT END OF TIME STEP    1, STRESS PERIOD 159
  ---------------------------------------------------------------------------------------------------

     CUMULATIVE VOLUME      L**3       RATES FOR THIS TIME STEP      L**3/T          PACKAGE NAME    
     ------------------                 ------------------------                     ----------------

           IN:                                      IN:
           ---                                      ---
              STO-SS =           0.0000                STO-SS =           0.0000     STORAGE         
              STO-SY =  3316726015.9775                STO-SY =    26872224.3171     STORAGE         
                 WEL =           0.0000                   WEL =           0.0000     WEL_0           
                 DRN =           0.0000                   DRN =           0.0000     DRN_0           
                 RCH = 14740204585.0716                   RCH =    54079475.9002     RCH_0           

            TOTAL IN = 18056930601.0491              TOTAL IN =    80951700.2173

          OUT:                                     OUT:
          ----                                     ----
              STO-SS =           0.0000                STO-SS =           0.0000     STORAGE         
              STO-SY =  3776038923.0053                STO-SY =     4392126.4167     STORAGE         
                 WEL =  1199714212.7783                   WEL =     6608624.3593     WEL_0           
                 DRN = 13081173906.2016                   DRN =    69950848.7612     DRN_0           
                 RCH =           0.0000                   RCH =           0.0000     RCH_0           

           TOTAL OUT = 18056927041.9852             TOTAL OUT =    80951599.5372

            IN - OUT =        3559.0639              IN - OUT =         100.6801

 PERCENT DISCREPANCY =           0.00     PERCENT DISCREPANCY =           0.00




         TIME SUMMARY AT END OF TIME STEP    1 IN STRESS PERIOD  159
                          TIME STEP LENGTH =    1.00000    
                        STRESS PERIOD TIME =    1.00000    
                     TOTAL SIMULATION TIME =    159.000    

end timestep


start timestep kper="160" kstp="1" mode="normal"


 OUTPUT CONTROL FOR STRESS PERIOD 160 IS REPEATED USING SETTINGS FROM A PREVIOUS STRESS PERIOD.


 STRESS PERIOD 160 IS TRANSIENT


 REUSING WELS FROM LAST STRESS PERIOD

 REUSING DRNS FROM LAST STRESS PERIOD

 REUSING RCHS FROM LAST STRESS PERIOD


  VOLUME BUDGET FOR ENTIRE MODEL AT END OF TIME STEP    1, STRESS PERIOD 160
  ---------------------------------------------------------------------------------------------------

     CUMULATIVE VOLUME      L**3       RATES FOR THIS TIME STEP      L**3/T          PACKAGE NAME    
     ------------------                 ------------------------                     ----------------

           IN:                                      IN:
           ---                                      ---
              STO-SS =           0.0000                STO-SS =           0.0000     STORAGE         
              STO-SY =  3344038103.7288                STO-SY =    27312087.7513     STORAGE         
                 WEL =           0.0000                   WEL =           0.0000     WEL_0           
                 DRN =           0.0000                   DRN =           0.0000     DRN_0           
                 RCH = 14792648654.5662                   RCH =    52444069.4947     RCH_0           

            TOTAL IN = 18136686758.2950              TOTAL IN =    79756157.2459

          OUT:                                     OUT:
          ----                                     ----
              STO-SS =           0.0000                STO-SS =           0.0000     STORAGE         
              STO-SY =  3779683982.6200                STO-SY =     3645059.6147     STORAGE         
                 WEL =  1206373740.7121                   WEL =     6659527.9338     WEL_0           
                 DRN = 13150625449.8412                   DRN =    69451543.6396     DRN_0           
                 RCH =           0.0000                   RCH =           0.0000     RCH_0           

           TOTAL OUT = 18136683173.1733             TOTAL OUT =    79756131.1881

            IN - OUT =        3585.1217              IN - OUT =          26.0578

 PERCENT DISCREPANCY =           0.00     PERCENT DISCREPANCY =           0.00




         TIME SUMMARY AT END OF TIME STEP    1 IN STRESS PERIOD  160
                          TIME STEP LENGTH =    1.00000    
                        STRESS PERIOD TIME =    1.00000    
                     TOTAL SIMULATION TIME =    160.000    

end timestep


start timestep kper="161" kstp="1" mode="normal"


 OUTPUT CONTROL FOR STRESS PERIOD 161 IS REPEATED USING SETTINGS FROM A PREVIOUS STRESS PERIOD.


 STRESS PERIOD 161 IS TRANSIENT


 REUSING WELS FROM LAST STRESS PERIOD

 REUSING DRNS FROM LAST STRESS PERIOD

 REUSING RCHS FROM LAST STRESS PERIOD


  VOLUME BUDGET FOR ENTIRE MODEL AT END OF TIME STEP    1, STRESS PERIOD 161
  ---------------------------------------------------------------------------------------------------

     CUMULATIVE VOLUME      L**3       RATES FOR THIS TIME STEP      L**3/T          PACKAGE NAME    
     ------------------                 ------------------------                     ----------------

           IN:                                      IN:
           ---                                      ---
              STO-SS =           0.0000                STO-SS =           0.0000     STORAGE         
              STO-SY =  3370647884.6558                STO-SY =    26609780.9270     STORAGE         
                 WEL =           0.0000                   WEL =           0.0000     WEL_0           
                 DRN =           0.0000                   DRN =           0.0000     DRN_0           
                 RCH = 14843748961.7504                   RCH =    51100307.1842     RCH_0           

            TOTAL IN = 18214396846.4062              TOTAL IN =    77710088.1112

          OUT:                                     OUT:
          ----                                     ----
              STO-SS =           0.0000                STO-SS =           0.0000     STORAGE         
              STO-SY =  3783826213.5444                STO-SY =     4142230.9244     STORAGE         
                 WEL =  1213090205.8963                   WEL =     6716465.1842     WEL_0           
                 DRN = 13217476672.8549                   DRN =    66851223.0138     DRN_0           
                 RCH =           0.0000                   RCH =           0.0000     RCH_0           

           TOTAL OUT = 18214393092.2957             TOTAL OUT =    77709919.1224

            IN - OUT =        3754.1105              IN - OUT =         168.9889

 PERCENT DISCREPANCY =           0.00     PERCENT DISCREPANCY =           0.00




         TIME SUMMARY AT END OF TIME STEP    1 IN STRESS PERIOD  161
                          TIME STEP LENGTH =    1.00000    
                        STRESS PERIOD TIME =    1.00000    
                     TOTAL SIMULATION TIME =    161.000    

end timestep


start timestep kper="162" kstp="1" mode="normal"


 OUTPUT CONTROL FOR STRESS PERIOD 162 IS REPEATED USING SETTINGS FROM A PREVIOUS STRESS PERIOD.


 STRESS PERIOD 162 IS TRANSIENT


 REUSING WELS FROM LAST STRESS PERIOD

 REUSING DRNS FROM LAST STRESS PERIOD

 REUSING RCHS FROM LAST STRESS PERIOD


  VOLUME BUDGET FOR ENTIRE MODEL AT END OF TIME STEP    1, STRESS PERIOD 162
  ---------------------------------------------------------------------------------------------------

     CUMULATIVE VOLUME      L**3       RATES FOR THIS TIME STEP      L**3/T          PACKAGE NAME    
     ------------------                 ------------------------                     ----------------

           IN:                                      IN:
           ---                                      ---
              STO-SS =           0.0000                STO-SS =           0.0000     STORAGE         
              STO-SY =  3397754305.3372                STO-SY =    27106420.6814     STORAGE         
                 WEL =           0.0000                   WEL =           0.0000     WEL_0           
                 DRN =           0.0000                   DRN =           0.0000     DRN_0           
                 RCH = 14893370119.4217                   RCH =    49621157.6713     RCH_0           

            TOTAL IN = 18291124424.7589              TOTAL IN =    76727578.3527

          OUT:                                     OUT:
          ----                                     ----
              STO-SS =           0.0000                STO-SS =           0.0000     STORAGE         
              STO-SY =  3787331376.6851                STO-SY =     3505163.1406     STORAGE         
                 WEL =  1219722870.2763                   WEL =     6632664.3800     WEL_0           
                 DRN = 13284066378.5065                   DRN =    66589705.6515     DRN_0           
                 RCH =           0.0000                   RCH =           0.0000     RCH_0           

           TOTAL OUT = 18291120625.4679             TOTAL OUT =    76727533.1722

            IN - OUT =        3799.2911              IN - OUT =          45.1805

 PERCENT DISCREPANCY =           0.00     PERCENT DISCREPANCY =           0.00




         TIME SUMMARY AT END OF TIME STEP    1 IN STRESS PERIOD  162
                          TIME STEP LENGTH =    1.00000    
                        STRESS PERIOD TIME =    1.00000    
                     TOTAL SIMULATION TIME =    162.000    

end timestep


start timestep kper="163" kstp="1" mode="normal"


 OUTPUT CONTROL FOR STRESS PERIOD 163 IS REPEATED USING SETTINGS FROM A PREVIOUS STRESS PERIOD.


 STRESS PERIOD 163 IS TRANSIENT


 REUSING WELS FROM LAST STRESS PERIOD

 REUSING DRNS FROM LAST STRESS PERIOD

 REUSING RCHS FROM LAST STRESS PERIOD


  VOLUME BUDGET FOR ENTIRE MODEL AT END OF TIME STEP    1, STRESS PERIOD 163
  ---------------------------------------------------------------------------------------------------

     CUMULATIVE VOLUME      L**3       RATES FOR THIS TIME STEP      L**3/T          PACKAGE NAME    
     ------------------                 ------------------------                     ----------------

           IN:                                      IN:
           ---                                      ---
              STO-SS =           0.0000                STO-SS =           0.0000     STORAGE         
              STO-SY =  3424038341.9654                STO-SY =    26284036.6282     STORAGE         
                 WEL =           0.0000                   WEL =           0.0000     WEL_0           
                 DRN =           0.0000                   DRN =           0.0000     DRN_0           
                 RCH = 14941662427.5186                   RCH =    48292308.0968     RCH_0           

            TOTAL IN = 18365700769.4839              TOTAL IN =    74576344.7250

          OUT:                                     OUT:
          ----                                     ----
              STO-SS =           0.0000                STO-SS =           0.0000     STORAGE         
              STO-SY =  3791330756.6973                STO-SY =     3999380.0122     STORAGE         
                 WEL =  1226437733.4440                   WEL =     6714863.1677     WEL_0           
                 DRN = 13347928482.0830                   DRN =    63862103.5765     DRN_0           
                 RCH =           0.0000                   RCH =           0.0000     RCH_0           

           TOTAL OUT = 18365696972.2244             TOTAL OUT =    74576346.7565

            IN - OUT =        3797.2596              IN - OUT =          -2.0315

 PERCENT DISCREPANCY =           0.00     PERCENT DISCREPANCY =          -0.00




         TIME SUMMARY AT END OF TIME STEP    1 IN STRESS PERIOD  163
                          TIME STEP LENGTH =    1.00000    
                        STRESS PERIOD TIME =    1.00000    
                     TOTAL SIMULATION TIME =    163.000    

end timestep


start timestep kper="164" kstp="1" mode="normal"


 OUTPUT CONTROL FOR STRESS PERIOD 164 IS REPEATED USING SETTINGS FROM A PREVIOUS STRESS PERIOD.


 STRESS PERIOD 164 IS TRANSIENT


 REUSING WELS FROM LAST STRESS PERIOD

 REUSING DRNS FROM LAST STRESS PERIOD

 REUSING RCHS FROM LAST STRESS PERIOD


  VOLUME BUDGET FOR ENTIRE MODEL AT END OF TIME STEP    1, STRESS PERIOD 164
  ---------------------------------------------------------------------------------------------------

     CUMULATIVE VOLUME      L**3       RATES FOR THIS TIME STEP      L**3/T          PACKAGE NAME    
     ------------------                 ------------------------                     ----------------

           IN:                                      IN:
           ---                                      ---
              STO-SS =           0.0000                STO-SS =           0.0000     STORAGE         
              STO-SY =  3448321348.4100                STO-SY =    24283006.4446     STORAGE         
                 WEL =           0.0000                   WEL =           0.0000     WEL_0           
                 DRN =           0.0000                   DRN =           0.0000     DRN_0           
                 RCH = 14988483346.1016                   RCH =    46820918.5830     RCH_0           

            TOTAL IN = 18436804694.5115              TOTAL IN =    71103925.0276

          OUT:                                     OUT:
          ----                                     ----
              STO-SS =           0.0000                STO-SS =           0.0000     STORAGE         
              STO-SY =  3795138958.0950                STO-SY =     3808201.3977     STORAGE         
                 WEL =  1228007347.0382                   WEL =     1569613.5942     WEL_0           
                 DRN = 13413654589.5713                   DRN =    65726107.4883     DRN_0           
                 RCH =           0.0000                   RCH =           0.0000     RCH_0           

           TOTAL OUT = 18436800894.7045             TOTAL OUT =    71103922.4801

            IN - OUT =        3799.8070              IN - OUT =           2.5475

 PERCENT DISCREPANCY =           0.00     PERCENT DISCREPANCY =           0.00




         TIME SUMMARY AT END OF TIME STEP    1 IN STRESS PERIOD  164
                          TIME STEP LENGTH =    1.00000    
                        STRESS PERIOD TIME =    1.00000    
                     TOTAL SIMULATION TIME =    164.000    

end timestep


start timestep kper="165" kstp="1" mode="normal"


 OUTPUT CONTROL FOR STRESS PERIOD 165 IS REPEATED USING SETTINGS FROM A PREVIOUS STRESS PERIOD.


 STRESS PERIOD 165 IS TRANSIENT


 REUSING WELS FROM LAST STRESS PERIOD

 REUSING DRNS FROM LAST STRESS PERIOD

 REUSING RCHS FROM LAST STRESS PERIOD


  VOLUME BUDGET FOR ENTIRE MODEL AT END OF TIME STEP    1, STRESS PERIOD 165
  ---------------------------------------------------------------------------------------------------

     CUMULATIVE VOLUME      L**3       RATES FOR THIS TIME STEP      L**3/T          PACKAGE NAME    
     ------------------                 ------------------------                     ----------------

           IN:                                      IN:
           ---                                      ---
              STO-SS =           0.0000                STO-SS =           0.0000     STORAGE         
              STO-SY =  3472164885.6225                STO-SY =    23843537.2126     STORAGE         
                 WEL =           0.0000                   WEL =           0.0000     WEL_0           
                 DRN =           0.0000                   DRN =           0.0000     DRN_0           
                 RCH = 15031790866.3382                   RCH =    43307520.2367     RCH_0           

            TOTAL IN = 18503955751.9608              TOTAL IN =    67151057.4492

          OUT:                                     OUT:
          ----                                     ----
              STO-SS =           0.0000                STO-SS =           0.0000     STORAGE         
              STO-SY =  3799026550.3469                STO-SY =     3887592.2519     STORAGE         
                 WEL =  1229581071.4396                   WEL =     1573724.4014     WEL_0           
                 DRN = 13475344313.0009                   DRN =    61689723.4296     DRN_0           
                 RCH =           0.0000                   RCH =           0.0000     RCH_0           

           TOTAL OUT = 18503951934.7874             TOTAL OUT =    67151040.0830

            IN - OUT =        3817.1733              IN - OUT =          17.3663

 PERCENT DISCREPANCY =           0.00     PERCENT DISCREPANCY =           0.00




         TIME SUMMARY AT END OF TIME STEP    1 IN STRESS PERIOD  165
                          TIME STEP LENGTH =    1.00000    
                        STRESS PERIOD TIME =    1.00000    
                     TOTAL SIMULATION TIME =    165.000    

end timestep


start timestep kper="166" kstp="1" mode="normal"


 OUTPUT CONTROL FOR STRESS PERIOD 166 IS REPEATED USING SETTINGS FROM A PREVIOUS STRESS PERIOD.


 STRESS PERIOD 166 IS TRANSIENT


 REUSING WELS FROM LAST STRESS PERIOD

 REUSING DRNS FROM LAST STRESS PERIOD

 REUSING RCHS FROM LAST STRESS PERIOD


  VOLUME BUDGET FOR ENTIRE MODEL AT END OF TIME STEP    1, STRESS PERIOD 166
  ---------------------------------------------------------------------------------------------------

     CUMULATIVE VOLUME      L**3       RATES FOR THIS TIME STEP      L**3/T          PACKAGE NAME    
     ------------------                 ------------------------                     ----------------

           IN:                                      IN:
           ---                                      ---
              STO-SS =           0.0000                STO-SS =           0.0000     STORAGE         
              STO-SY =  3496399823.0023                STO-SY =    24234937.3798     STORAGE         
                 WEL =           0.0000                   WEL =           0.0000     WEL_0           
                 DRN =           0.0000                   DRN =           0.0000     DRN_0           
                 RCH = 15074549661.9125                   RCH =    42758795.5743     RCH_0           

            TOTAL IN = 18570949484.9148              TOTAL IN =    66993732.9541

          OUT:                                     OUT:
          ----                                     ----
              STO-SS =           0.0000                STO-SS =           0.0000     STORAGE         
              STO-SY =  3802303632.7022                STO-SY =     3277082.3553     STORAGE         
                 WEL =  1231151646.7932                   WEL =     1570575.3536     WEL_0           
                 DRN = 13537490338.6007                   DRN =    62146025.5998     DRN_0           
                 RCH =           0.0000                   RCH =           0.0000     RCH_0           

           TOTAL OUT = 18570945618.0961             TOTAL OUT =    66993683.3087

            IN - OUT =        3866.8187              IN - OUT =          49.6454

 PERCENT DISCREPANCY =           0.00     PERCENT DISCREPANCY =           0.00




         TIME SUMMARY AT END OF TIME STEP    1 IN STRESS PERIOD  166
                          TIME STEP LENGTH =    1.00000    
                        STRESS PERIOD TIME =    1.00000    
                     TOTAL SIMULATION TIME =    166.000    

end timestep


start timestep kper="167" kstp="1" mode="normal"


 OUTPUT CONTROL FOR STRESS PERIOD 167 IS REPEATED USING SETTINGS FROM A PREVIOUS STRESS PERIOD.


 STRESS PERIOD 167 IS TRANSIENT


 REUSING WELS FROM LAST STRESS PERIOD

 REUSING DRNS FROM LAST STRESS PERIOD

 REUSING RCHS FROM LAST STRESS PERIOD


  VOLUME BUDGET FOR ENTIRE MODEL AT END OF TIME STEP    1, STRESS PERIOD 167
  ---------------------------------------------------------------------------------------------------

     CUMULATIVE VOLUME      L**3       RATES FOR THIS TIME STEP      L**3/T          PACKAGE NAME    
     ------------------                 ------------------------                     ----------------

           IN:                                      IN:
           ---                                      ---
              STO-SS =           0.0000                STO-SS =           0.0000     STORAGE         
              STO-SY =  3520065813.6360                STO-SY =    23665990.6337     STORAGE         
                 WEL =           0.0000                   WEL =           0.0000     WEL_0           
                 DRN =           0.0000                   DRN =           0.0000     DRN_0           
                 RCH = 15114633143.4787                   RCH =    40083481.5661     RCH_0           

            TOTAL IN = 18634698957.1147              TOTAL IN =    63749472.1998

          OUT:                                     OUT:
          ----                                     ----
              STO-SS =           0.0000                STO-SS =           0.0000     STORAGE         
              STO-SY =  3805841774.3043                STO-SY =     3538141.6021     STORAGE         
                 WEL =  1232745467.7092                   WEL =     1593820.9160     WEL_0           
                 DRN = 13596107810.5729                   DRN =    58617471.9721     DRN_0           
                 RCH =           0.0000                   RCH =           0.0000     RCH_0           

           TOTAL OUT = 18634695052.5864             TOTAL OUT =    63749434.4902

            IN - OUT =        3904.5283              IN - OUT =          37.7096

 PERCENT DISCREPANCY =           0.00     PERCENT DISCREPANCY =           0.00




         TIME SUMMARY AT END OF TIME STEP    1 IN STRESS PERIOD  167
                          TIME STEP LENGTH =    1.00000    
                        STRESS PERIOD TIME =    1.00000    
                     TOTAL SIMULATION TIME =    167.000    

end timestep


start timestep kper="168" kstp="1" mode="normal"


 OUTPUT CONTROL FOR STRESS PERIOD 168 IS REPEATED USING SETTINGS FROM A PREVIOUS STRESS PERIOD.


 STRESS PERIOD 168 IS TRANSIENT


 REUSING WELS FROM LAST STRESS PERIOD

 REUSING DRNS FROM LAST STRESS PERIOD

 REUSING RCHS FROM LAST STRESS PERIOD


  VOLUME BUDGET FOR ENTIRE MODEL AT END OF TIME STEP    1, STRESS PERIOD 168
  ---------------------------------------------------------------------------------------------------

     CUMULATIVE VOLUME      L**3       RATES FOR THIS TIME STEP      L**3/T          PACKAGE NAME    
     ------------------                 ------------------------                     ----------------

           IN:                                      IN:
           ---                                      ---
              STO-SS =           0.0000                STO-SS =           0.0000     STORAGE         
              STO-SY =  3544359439.8346                STO-SY =    24293626.1985     STORAGE         
                 WEL =           0.0000                   WEL =           0.0000     WEL_0           
                 DRN =           0.0000                   DRN =           0.0000     DRN_0           
                 RCH = 15154081666.9795                   RCH =    39448523.5008     RCH_0           

            TOTAL IN = 18698441106.8140              TOTAL IN =    63742149.6993

          OUT:                                     OUT:
          ----                                     ----
              STO-SS =           0.0000                STO-SS =           0.0000     STORAGE         
              STO-SY =  3808824505.4401                STO-SY =     2982731.1358     STORAGE         
                 WEL =  1234338009.6474                   WEL =     1592541.9382     WEL_0           
                 DRN = 13655274606.9340                   DRN =    59166796.3612     DRN_0           
                 RCH =           0.0000                   RCH =           0.0000     RCH_0           

           TOTAL OUT = 18698437122.0215             TOTAL OUT =    63742069.4352

            IN - OUT =        3984.7925              IN - OUT =          80.2642

 PERCENT DISCREPANCY =           0.00     PERCENT DISCREPANCY =           0.00




         TIME SUMMARY AT END OF TIME STEP    1 IN STRESS PERIOD  168
                          TIME STEP LENGTH =    1.00000    
                        STRESS PERIOD TIME =    1.00000    
                     TOTAL SIMULATION TIME =    168.000    

end timestep


start timestep kper="169" kstp="1" mode="normal"


 OUTPUT CONTROL FOR STRESS PERIOD 169 IS REPEATED USING SETTINGS FROM A PREVIOUS STRESS PERIOD.


 STRESS PERIOD 169 IS TRANSIENT


 REUSING WELS FROM LAST STRESS PERIOD

 REUSING DRNS FROM LAST STRESS PERIOD

 REUSING RCHS FROM LAST STRESS PERIOD


  VOLUME BUDGET FOR ENTIRE MODEL AT END OF TIME STEP    1, STRESS PERIOD 169
  ---------------------------------------------------------------------------------------------------

     CUMULATIVE VOLUME      L**3       RATES FOR THIS TIME STEP      L**3/T          PACKAGE NAME    
     ------------------                 ------------------------                     ----------------

           IN:                                      IN:
           ---                                      ---
              STO-SS =           0.0000                STO-SS =           0.0000     STORAGE         
              STO-SY =  3568191184.5367                STO-SY =    23831744.7022     STORAGE         
                 WEL =           0.0000                   WEL =           0.0000     WEL_0           
                 DRN =           0.0000                   DRN =           0.0000     DRN_0           
                 RCH = 15190443337.6375                   RCH =    36361670.6580     RCH_0           

            TOTAL IN = 18758634522.1742              TOTAL IN =    60193415.3602

          OUT:                                     OUT:
          ----                                     ----
              STO-SS =           0.0000                STO-SS =           0.0000     STORAGE         
              STO-SY =  3812086354.6235                STO-SY =     3261849.1835     STORAGE         
                 WEL =  1235903762.7446                   WEL =     1565753.0972     WEL_0           
                 DRN = 13710640339.3042                   DRN =    55365732.3702     DRN_0           
                 RCH =           0.0000                   RCH =           0.0000     RCH_0           

           TOTAL OUT = 18758630456.6724             TOTAL OUT =    60193334.6508

            IN - OUT =        4065.5018              IN - OUT =          80.7093

 PERCENT DISCREPANCY =           0.00     PERCENT DISCREPANCY =           0.00




         TIME SUMMARY AT END OF TIME STEP    1 IN STRESS PERIOD  169
                          TIME STEP LENGTH =    1.00000    
                        STRESS PERIOD TIME =    1.00000    
                     TOTAL SIMULATION TIME =    169.000    

end timestep


start timestep kper="170" kstp="1" mode="normal"


 OUTPUT CONTROL FOR STRESS PERIOD 170 IS REPEATED USING SETTINGS FROM A PREVIOUS STRESS PERIOD.


 STRESS PERIOD 170 IS TRANSIENT


 REUSING WELS FROM LAST STRESS PERIOD

 REUSING DRNS FROM LAST STRESS PERIOD

 REUSING RCHS FROM LAST STRESS PERIOD


  VOLUME BUDGET FOR ENTIRE MODEL AT END OF TIME STEP    1, STRESS PERIOD 170
  ---------------------------------------------------------------------------------------------------

     CUMULATIVE VOLUME      L**3       RATES FOR THIS TIME STEP      L**3/T          PACKAGE NAME    
     ------------------                 ------------------------                     ----------------

           IN:                                      IN:
           ---                                      ---
              STO-SS =           0.0000                STO-SS =           0.0000     STORAGE         
              STO-SY =  3592561568.5249                STO-SY =    24370383.9881     STORAGE         
                 WEL =           0.0000                   WEL =           0.0000     WEL_0           
                 DRN =           0.0000                   DRN =           0.0000     DRN_0           
                 RCH = 15226849957.2677                   RCH =    36406619.6302     RCH_0           

            TOTAL IN = 18819411525.7925              TOTAL IN =    60777003.6183

          OUT:                                     OUT:
          ----                                     ----
              STO-SS =           0.0000                STO-SS =           0.0000     STORAGE         
              STO-SY =  3814836311.4125                STO-SY =     2749956.7889     STORAGE         
                 WEL =  1237498943.6787                   WEL =     1595180.9341     WEL_0           
                 DRN = 13767072171.1151                   DRN =    56431831.8109     DRN_0           
                 RCH =           0.0000                   RCH =           0.0000     RCH_0           

           TOTAL OUT = 18819407426.2063             TOTAL OUT =    60776969.5339

            IN - OUT =        4099.5863              IN - OUT =          34.0844

 PERCENT DISCREPANCY =           0.00     PERCENT DISCREPANCY =           0.00




         TIME SUMMARY AT END OF TIME STEP    1 IN STRESS PERIOD  170
                          TIME STEP LENGTH =    1.00000    
                        STRESS PERIOD TIME =    1.00000    
                     TOTAL SIMULATION TIME =    170.000    

end timestep


start timestep kper="171" kstp="1" mode="normal"


 OUTPUT CONTROL FOR STRESS PERIOD 171 IS REPEATED USING SETTINGS FROM A PREVIOUS STRESS PERIOD.


 STRESS PERIOD 171 IS TRANSIENT


 REUSING WELS FROM LAST STRESS PERIOD

 REUSING DRNS FROM LAST STRESS PERIOD

 REUSING RCHS FROM LAST STRESS PERIOD


  VOLUME BUDGET FOR ENTIRE MODEL AT END OF TIME STEP    1, STRESS PERIOD 171
  ---------------------------------------------------------------------------------------------------

     CUMULATIVE VOLUME      L**3       RATES FOR THIS TIME STEP      L**3/T          PACKAGE NAME    
     ------------------                 ------------------------                     ----------------

           IN:                                      IN:
           ---                                      ---
              STO-SS =           0.0000                STO-SS =           0.0000     STORAGE         
              STO-SY =  3616581407.6257                STO-SY =    24019839.1008     STORAGE         
                 WEL =           0.0000                   WEL =           0.0000     WEL_0           
                 DRN =           0.0000                   DRN =           0.0000     DRN_0           
                 RCH = 15259902146.7053                   RCH =    33052189.4376     RCH_0           

            TOTAL IN = 18876483554.3310              TOTAL IN =    57072028.5385

          OUT:                                     OUT:
          ----                                     ----
              STO-SS =           0.0000                STO-SS =           0.0000     STORAGE         
              STO-SY =  3817791486.2904                STO-SY =     2955174.8779     STORAGE         
                 WEL =  1239061305.1669                   WEL =     1562361.4882     WEL_0           
                 DRN = 13819626621.0282                   DRN =    52554449.9131     DRN_0           
                 RCH =           0.0000                   RCH =           0.0000     RCH_0           

           TOTAL OUT = 18876479412.4855             TOTAL OUT =    57071986.2792

            IN - OUT =        4141.8455              IN - OUT =          42.2593

 PERCENT DISCREPANCY =           0.00     PERCENT DISCREPANCY =           0.00




         TIME SUMMARY AT END OF TIME STEP    1 IN STRESS PERIOD  171
                          TIME STEP LENGTH =    1.00000    
                        STRESS PERIOD TIME =    1.00000    
                     TOTAL SIMULATION TIME =    171.000    

end timestep


start timestep kper="172" kstp="1" mode="normal"


 OUTPUT CONTROL FOR STRESS PERIOD 172 IS REPEATED USING SETTINGS FROM A PREVIOUS STRESS PERIOD.


 STRESS PERIOD 172 IS TRANSIENT


 REUSING WELS FROM LAST STRESS PERIOD

 REUSING DRNS FROM LAST STRESS PERIOD

 REUSING RCHS FROM LAST STRESS PERIOD


  VOLUME BUDGET FOR ENTIRE MODEL AT END OF TIME STEP    1, STRESS PERIOD 172
  ---------------------------------------------------------------------------------------------------

     CUMULATIVE VOLUME      L**3       RATES FOR THIS TIME STEP      L**3/T          PACKAGE NAME    
     ------------------                 ------------------------                     ----------------

           IN:                                      IN:
           ---                                      ---
              STO-SS =           0.0000                STO-SS =           0.0000     STORAGE         
              STO-SY =  3640902156.0126                STO-SY =    24320748.3869     STORAGE         
                 WEL =           0.0000                   WEL =           0.0000     WEL_0           
                 DRN =           0.0000                   DRN =           0.0000     DRN_0           
                 RCH = 15293729860.8826                   RCH =    33827714.1774     RCH_0           

            TOTAL IN = 18934632016.8953              TOTAL IN =    58148462.5643

          OUT:                                     OUT:
          ----                                     ----
              STO-SS =           0.0000                STO-SS =           0.0000     STORAGE         
              STO-SY =  3820347359.0780                STO-SY =     2555872.7876     STORAGE         
                 WEL =  1240629885.8341                   WEL =     1568580.6673     WEL_0           
                 DRN = 13873650628.4353                   DRN =    54024007.4071     DRN_0           
                 RCH =           0.0000                   RCH =           0.0000     RCH_0           

           TOTAL OUT = 18934627873.3474             TOTAL OUT =    58148460.8620

            IN - OUT =        4143.5478              IN - OUT =           1.7023

 PERCENT DISCREPANCY =           0.00     PERCENT DISCREPANCY =           0.00




         TIME SUMMARY AT END OF TIME STEP    1 IN STRESS PERIOD  172
                          TIME STEP LENGTH =    1.00000    
                        STRESS PERIOD TIME =    1.00000    
                     TOTAL SIMULATION TIME =    172.000    

end timestep


start timestep kper="173" kstp="1" mode="normal"


 OUTPUT CONTROL FOR STRESS PERIOD 173 IS REPEATED USING SETTINGS FROM A PREVIOUS STRESS PERIOD.


 STRESS PERIOD 173 IS TRANSIENT


 REUSING WELS FROM LAST STRESS PERIOD

 REUSING DRNS FROM LAST STRESS PERIOD

 REUSING RCHS FROM LAST STRESS PERIOD


  VOLUME BUDGET FOR ENTIRE MODEL AT END OF TIME STEP    1, STRESS PERIOD 173
  ---------------------------------------------------------------------------------------------------

     CUMULATIVE VOLUME      L**3       RATES FOR THIS TIME STEP      L**3/T          PACKAGE NAME    
     ------------------                 ------------------------                     ----------------

           IN:                                      IN:
           ---                                      ---
              STO-SS =           0.0000                STO-SS =           0.0000     STORAGE         
              STO-SY =  3664984265.7015                STO-SY =    24082109.6889     STORAGE         
                 WEL =           0.0000                   WEL =           0.0000     WEL_0           
                 DRN =           0.0000                   DRN =           0.0000     DRN_0           
                 RCH = 15323771242.2037                   RCH =    30041381.3211     RCH_0           

            TOTAL IN = 18988755507.9052              TOTAL IN =    54123491.0100

          OUT:                                     OUT:
          ----                                     ----
              STO-SS =           0.0000                STO-SS =           0.0000     STORAGE         
              STO-SY =  3823066690.1830                STO-SY =     2719331.1049     STORAGE         
                 WEL =  1242179226.0116                   WEL =     1549340.1775     WEL_0           
                 DRN = 13923505368.3681                   DRN =    49854739.9328     DRN_0           
                 RCH =           0.0000                   RCH =           0.0000     RCH_0           

           TOTAL OUT = 18988751284.5626             TOTAL OUT =    54123411.2152

            IN - OUT =        4223.3426              IN - OUT =          79.7948

 PERCENT DISCREPANCY =           0.00     PERCENT DISCREPANCY =           0.00




         TIME SUMMARY AT END OF TIME STEP    1 IN STRESS PERIOD  173
                          TIME STEP LENGTH =    1.00000    
                        STRESS PERIOD TIME =    1.00000    
                     TOTAL SIMULATION TIME =    173.000    

end timestep


start timestep kper="174" kstp="1" mode="normal"


 OUTPUT CONTROL FOR STRESS PERIOD 174 IS REPEATED USING SETTINGS FROM A PREVIOUS STRESS PERIOD.


 STRESS PERIOD 174 IS TRANSIENT


 REUSING WELS FROM LAST STRESS PERIOD

 REUSING DRNS FROM LAST STRESS PERIOD

 REUSING RCHS FROM LAST STRESS PERIOD


  VOLUME BUDGET FOR ENTIRE MODEL AT END OF TIME STEP    1, STRESS PERIOD 174
  ---------------------------------------------------------------------------------------------------

     CUMULATIVE VOLUME      L**3       RATES FOR THIS TIME STEP      L**3/T          PACKAGE NAME    
     ------------------                 ------------------------                     ----------------

           IN:                                      IN:
           ---                                      ---
              STO-SS =           0.0000                STO-SS =           0.0000     STORAGE         
              STO-SY =  3689163965.1742                STO-SY =    24179699.4727     STORAGE         
                 WEL =           0.0000                   WEL =           0.0000     WEL_0           
                 DRN =           0.0000                   DRN =           0.0000     DRN_0           
                 RCH = 15355284806.1658                   RCH =    31513563.9621     RCH_0           

            TOTAL IN = 19044448771.3400              TOTAL IN =    55693263.4348

          OUT:                                     OUT:
          ----                                     ----
              STO-SS =           0.0000                STO-SS =           0.0000     STORAGE         
              STO-SY =  3825461176.0854                STO-SY =     2394485.9025     STORAGE         
                 WEL =  1243809300.1833                   WEL =     1630074.1717     WEL_0           
                 DRN = 13975173980.7495                   DRN =    51668612.3815     DRN_0           
                 RCH =           0.0000                   RCH =           0.0000     RCH_0           

           TOTAL OUT = 19044444457.0183             TOTAL OUT =    55693172.4557

            IN - OUT =        4314.3218              IN - OUT =          90.9791

 PERCENT DISCREPANCY =           0.00     PERCENT DISCREPANCY =           0.00




         TIME SUMMARY AT END OF TIME STEP    1 IN STRESS PERIOD  174
                          TIME STEP LENGTH =    1.00000    
                        STRESS PERIOD TIME =    1.00000    
                     TOTAL SIMULATION TIME =    174.000    

end timestep


start timestep kper="175" kstp="1" mode="normal"


 OUTPUT CONTROL FOR STRESS PERIOD 175 IS REPEATED USING SETTINGS FROM A PREVIOUS STRESS PERIOD.


 STRESS PERIOD 175 IS TRANSIENT


 REUSING WELS FROM LAST STRESS PERIOD

 REUSING DRNS FROM LAST STRESS PERIOD

 REUSING RCHS FROM LAST STRESS PERIOD


  VOLUME BUDGET FOR ENTIRE MODEL AT END OF TIME STEP    1, STRESS PERIOD 175
  ---------------------------------------------------------------------------------------------------

     CUMULATIVE VOLUME      L**3       RATES FOR THIS TIME STEP      L**3/T          PACKAGE NAME    
     ------------------                 ------------------------                     ----------------

           IN:                                      IN:
           ---                                      ---
              STO-SS =           0.0000                STO-SS =           0.0000     STORAGE         
              STO-SY =  3713080136.8812                STO-SY =    23916171.7070     STORAGE         
                 WEL =           0.0000                   WEL =           0.0000     WEL_0           
                 DRN =           0.0000                   DRN =           0.0000     DRN_0           
                 RCH = 15383138971.9712                   RCH =    27854165.8053     RCH_0           

            TOTAL IN = 19096219108.8524              TOTAL IN =    51770337.5124

          OUT:                                     OUT:
          ----                                     ----
              STO-SS =           0.0000                STO-SS =           0.0000     STORAGE         
              STO-SY =  3827955364.9789                STO-SY =     2494188.8935     STORAGE         
                 WEL =  1245368103.2810                   WEL =     1558803.0977     WEL_0           
                 DRN = 14022891271.4458                   DRN =    47717290.6963     DRN_0           
                 RCH =           0.0000                   RCH =           0.0000     RCH_0           

           TOTAL OUT = 19096214739.7057             TOTAL OUT =    51770282.6874

            IN - OUT =        4369.1467              IN - OUT =          54.8249

 PERCENT DISCREPANCY =           0.00     PERCENT DISCREPANCY =           0.00




         TIME SUMMARY AT END OF TIME STEP    1 IN STRESS PERIOD  175
                          TIME STEP LENGTH =    1.00000    
                        STRESS PERIOD TIME =    1.00000    
                     TOTAL SIMULATION TIME =    175.000    

end timestep


start timestep kper="176" kstp="1" mode="normal"


 OUTPUT CONTROL FOR STRESS PERIOD 176 IS REPEATED USING SETTINGS FROM A PREVIOUS STRESS PERIOD.


 STRESS PERIOD 176 IS TRANSIENT


 REUSING WELS FROM LAST STRESS PERIOD

 REUSING DRNS FROM LAST STRESS PERIOD

 REUSING RCHS FROM LAST STRESS PERIOD


  VOLUME BUDGET FOR ENTIRE MODEL AT END OF TIME STEP    1, STRESS PERIOD 176
  ---------------------------------------------------------------------------------------------------

     CUMULATIVE VOLUME      L**3       RATES FOR THIS TIME STEP      L**3/T          PACKAGE NAME    
     ------------------                 ------------------------                     ----------------

           IN:                                      IN:
           ---                                      ---
              STO-SS =           0.0000                STO-SS =           0.0000     STORAGE         
              STO-SY =  3736983016.4147                STO-SY =    23902879.5335     STORAGE         
                 WEL =           0.0000                   WEL =           0.0000     WEL_0           
                 DRN =           0.0000                   DRN =           0.0000     DRN_0           
                 RCH = 15412541016.9619                   RCH =    29402044.9907     RCH_0           

            TOTAL IN = 19149524033.3766              TOTAL IN =    53304924.5242

          OUT:                                     OUT:
          ----                                     ----
              STO-SS =           0.0000                STO-SS =           0.0000     STORAGE         
              STO-SY =  3830261212.4459                STO-SY =     2305847.4670     STORAGE         
                 WEL =  1246907131.8133                   WEL =     1539028.5323     WEL_0           
                 DRN = 14072351318.6106                   DRN =    49460047.1648     DRN_0           
                 RCH =           0.0000                   RCH =           0.0000     RCH_0           

           TOTAL OUT = 19149519662.8698             TOTAL OUT =    53304923.1641

            IN - OUT =        4370.5068              IN - OUT =           1.3601

 PERCENT DISCREPANCY =           0.00     PERCENT DISCREPANCY =           0.00




         TIME SUMMARY AT END OF TIME STEP    1 IN STRESS PERIOD  176
                          TIME STEP LENGTH =    1.00000    
                        STRESS PERIOD TIME =    1.00000    
                     TOTAL SIMULATION TIME =    176.000    

end timestep


start timestep kper="177" kstp="1" mode="normal"


 OUTPUT CONTROL FOR STRESS PERIOD 177 IS REPEATED USING SETTINGS FROM A PREVIOUS STRESS PERIOD.


 STRESS PERIOD 177 IS TRANSIENT


 REUSING WELS FROM LAST STRESS PERIOD

 REUSING DRNS FROM LAST STRESS PERIOD

 REUSING RCHS FROM LAST STRESS PERIOD


  VOLUME BUDGET FOR ENTIRE MODEL AT END OF TIME STEP    1, STRESS PERIOD 177
  ---------------------------------------------------------------------------------------------------

     CUMULATIVE VOLUME      L**3       RATES FOR THIS TIME STEP      L**3/T          PACKAGE NAME    
     ------------------                 ------------------------                     ----------------

           IN:                                      IN:
           ---                                      ---
              STO-SS =           0.0000                STO-SS =           0.0000     STORAGE         
              STO-SY =  3760604304.0223                STO-SY =    23621287.6076     STORAGE         
                 WEL =           0.0000                   WEL =           0.0000     WEL_0           
                 DRN =           0.0000                   DRN =           0.0000     DRN_0           
                 RCH = 15438589169.3711                   RCH =    26048152.4091     RCH_0           

            TOTAL IN = 19199193473.3933              TOTAL IN =    49669440.0167

          OUT:                                     OUT:
          ----                                     ----
              STO-SS =           0.0000                STO-SS =           0.0000     STORAGE         
              STO-SY =  3832590741.7004                STO-SY =     2329529.2545     STORAGE         
                 WEL =  1248486426.0267                   WEL =     1579294.2133     WEL_0           
                 DRN = 14118111903.4502                   DRN =    45760584.8396     DRN_0           
                 RCH =           0.0000                   RCH =           0.0000     RCH_0           

           TOTAL OUT = 19199189071.1772             TOTAL OUT =    49669408.3074

            IN - OUT =        4402.2161              IN - OUT =          31.7093

 PERCENT DISCREPANCY =           0.00     PERCENT DISCREPANCY =           0.00




         TIME SUMMARY AT END OF TIME STEP    1 IN STRESS PERIOD  177
                          TIME STEP LENGTH =    1.00000    
                        STRESS PERIOD TIME =    1.00000    
                     TOTAL SIMULATION TIME =    177.000    

end timestep


start timestep kper="178" kstp="1" mode="normal"


 OUTPUT CONTROL FOR STRESS PERIOD 178 IS REPEATED USING SETTINGS FROM A PREVIOUS STRESS PERIOD.


 STRESS PERIOD 178 IS TRANSIENT


 REUSING WELS FROM LAST STRESS PERIOD

 REUSING DRNS FROM LAST STRESS PERIOD

 REUSING RCHS FROM LAST STRESS PERIOD


  VOLUME BUDGET FOR ENTIRE MODEL AT END OF TIME STEP    1, STRESS PERIOD 178
  ---------------------------------------------------------------------------------------------------

     CUMULATIVE VOLUME      L**3       RATES FOR THIS TIME STEP      L**3/T          PACKAGE NAME    
     ------------------                 ------------------------                     ----------------

           IN:                                      IN:
           ---                                      ---
              STO-SS =           0.0000                STO-SS =           0.0000     STORAGE         
              STO-SY =  3784614804.4007                STO-SY =    24010500.3784     STORAGE         
                 WEL =           0.0000                   WEL =           0.0000     WEL_0           
                 DRN =           0.0000                   DRN =           0.0000     DRN_0           
                 RCH = 15465818286.3102                   RCH =    27229116.9391     RCH_0           

            TOTAL IN = 19250433090.7109              TOTAL IN =    51239617.3176

          OUT:                                     OUT:
          ----                                     ----
              STO-SS =           0.0000                STO-SS =           0.0000     STORAGE         
              STO-SY =  3834685526.4308                STO-SY =     2094784.7304     STORAGE         
                 WEL =  1250300170.8054                   WEL =     1813744.7787     WEL_0           
                 DRN = 14165442944.2533                   DRN =    47331040.8032     DRN_0           
                 RCH =           0.0000                   RCH =           0.0000     RCH_0           

           TOTAL OUT = 19250428641.4895             TOTAL OUT =    51239570.3123

            IN - OUT =        4449.2214              IN - OUT =          47.0053

 PERCENT DISCREPANCY =           0.00     PERCENT DISCREPANCY =           0.00




         TIME SUMMARY AT END OF TIME STEP    1 IN STRESS PERIOD  178
                          TIME STEP LENGTH =    1.00000    
                        STRESS PERIOD TIME =    1.00000    
                     TOTAL SIMULATION TIME =    178.000    

end timestep


start timestep kper="179" kstp="1" mode="normal"


 OUTPUT CONTROL FOR STRESS PERIOD 179 IS REPEATED USING SETTINGS FROM A PREVIOUS STRESS PERIOD.


 STRESS PERIOD 179 IS TRANSIENT


 REUSING WELS FROM LAST STRESS PERIOD

 REUSING DRNS FROM LAST STRESS PERIOD

 REUSING RCHS FROM LAST STRESS PERIOD


  VOLUME BUDGET FOR ENTIRE MODEL AT END OF TIME STEP    1, STRESS PERIOD 179
  ---------------------------------------------------------------------------------------------------

     CUMULATIVE VOLUME      L**3       RATES FOR THIS TIME STEP      L**3/T          PACKAGE NAME    
     ------------------                 ------------------------                     ----------------

           IN:                                      IN:
           ---                                      ---
              STO-SS =           0.0000                STO-SS =           0.0000     STORAGE         
              STO-SY =  3808138941.3025                STO-SY =    23524136.9017     STORAGE         
                 WEL =           0.0000                   WEL =           0.0000     WEL_0           
                 DRN =           0.0000                   DRN =           0.0000     DRN_0           
                 RCH = 15489956672.1712                   RCH =    24138385.8610     RCH_0           

            TOTAL IN = 19298095613.4736              TOTAL IN =    47662522.7627

          OUT:                                     OUT:
          ----                                     ----
              STO-SS =           0.0000                STO-SS =           0.0000     STORAGE         
              STO-SY =  3836882407.5944                STO-SY =     2196881.1636     STORAGE         
                 WEL =  1251860119.1706                   WEL =     1559948.3652     WEL_0           
                 DRN = 14209348614.2900                   DRN =    43905670.0366     DRN_0           
                 RCH =           0.0000                   RCH =           0.0000     RCH_0           

           TOTAL OUT = 19298091141.0550             TOTAL OUT =    47662499.5654

            IN - OUT =        4472.4187              IN - OUT =          23.1972

 PERCENT DISCREPANCY =           0.00     PERCENT DISCREPANCY =           0.00




         TIME SUMMARY AT END OF TIME STEP    1 IN STRESS PERIOD  179
                          TIME STEP LENGTH =    1.00000    
                        STRESS PERIOD TIME =    1.00000    
                     TOTAL SIMULATION TIME =    179.000    

end timestep


start timestep kper="180" kstp="1" mode="normal"


 OUTPUT CONTROL FOR STRESS PERIOD 180 IS REPEATED USING SETTINGS FROM A PREVIOUS STRESS PERIOD.


 STRESS PERIOD 180 IS TRANSIENT


 REUSING WELS FROM LAST STRESS PERIOD

 REUSING DRNS FROM LAST STRESS PERIOD

 REUSING RCHS FROM LAST STRESS PERIOD


  VOLUME BUDGET FOR ENTIRE MODEL AT END OF TIME STEP    1, STRESS PERIOD 180
  ---------------------------------------------------------------------------------------------------

     CUMULATIVE VOLUME      L**3       RATES FOR THIS TIME STEP      L**3/T          PACKAGE NAME    
     ------------------                 ------------------------                     ----------------

           IN:                                      IN:
           ---                                      ---
              STO-SS =           0.0000                STO-SS =           0.0000     STORAGE         
              STO-SY =  3832433429.6298                STO-SY =    24294488.3273     STORAGE         
                 WEL =           0.0000                   WEL =           0.0000     WEL_0           
                 DRN =           0.0000                   DRN =           0.0000     DRN_0           
                 RCH = 15515243373.9791                   RCH =    25286701.8079     RCH_0           

            TOTAL IN = 19347676803.6088              TOTAL IN =    49581190.1352

          OUT:                                     OUT:
          ----                                     ----
              STO-SS =           0.0000                STO-SS =           0.0000     STORAGE         
              STO-SY =  3838883722.1210                STO-SY =     2001314.5266     STORAGE         
                 WEL =  1254043274.9057                   WEL =     2183155.7351     WEL_0           
                 DRN = 14254745325.9752                   DRN =    45396711.6852     DRN_0           
                 RCH =           0.0000                   RCH =           0.0000     RCH_0           

           TOTAL OUT = 19347672323.0019             TOTAL OUT =    49581181.9470

            IN - OUT =        4480.6069              IN - OUT =           8.1883

 PERCENT DISCREPANCY =           0.00     PERCENT DISCREPANCY =           0.00




         TIME SUMMARY AT END OF TIME STEP    1 IN STRESS PERIOD  180
                          TIME STEP LENGTH =    1.00000    
                        STRESS PERIOD TIME =    1.00000    
                     TOTAL SIMULATION TIME =    180.000    

end timestep


start timestep kper="181" kstp="1" mode="normal"


 OUTPUT CONTROL FOR STRESS PERIOD 181 IS REPEATED USING SETTINGS FROM A PREVIOUS STRESS PERIOD.


 STRESS PERIOD 181 IS TRANSIENT


 REUSING WELS FROM LAST STRESS PERIOD

 REUSING DRNS FROM LAST STRESS PERIOD

 REUSING RCHS FROM LAST STRESS PERIOD


  VOLUME BUDGET FOR ENTIRE MODEL AT END OF TIME STEP    1, STRESS PERIOD 181
  ---------------------------------------------------------------------------------------------------

     CUMULATIVE VOLUME      L**3       RATES FOR THIS TIME STEP      L**3/T          PACKAGE NAME    
     ------------------                 ------------------------                     ----------------

           IN:                                      IN:
           ---                                      ---
              STO-SS =           0.0000                STO-SS =           0.0000     STORAGE         
              STO-SY =  3854933373.0715                STO-SY =    22499943.4417     STORAGE         
                 WEL =           0.0000                   WEL =           0.0000     WEL_0           
                 DRN =           0.0000                   DRN =           0.0000     DRN_0           
                 RCH = 15539408448.9141                   RCH =    24165074.9350     RCH_0           

            TOTAL IN = 19394341821.9855              TOTAL IN =    46665018.3767

          OUT:                                     OUT:
          ----                                     ----
              STO-SS =           0.0000                STO-SS =           0.0000     STORAGE         
              STO-SY =  3841194621.8023                STO-SY =     2310899.6813     STORAGE         
                 WEL =  1255573663.7076                   WEL =     1530388.8019     WEL_0           
                 DRN = 14297569012.5818                   DRN =    42823686.6066     DRN_0           
                 RCH =           0.0000                   RCH =           0.0000     RCH_0           

           TOTAL OUT = 19394337298.0917             TOTAL OUT =    46664975.0898

            IN - OUT =        4523.8938              IN - OUT =          43.2869

 PERCENT DISCREPANCY =           0.00     PERCENT DISCREPANCY =           0.00




         TIME SUMMARY AT END OF TIME STEP    1 IN STRESS PERIOD  181
                          TIME STEP LENGTH =    1.00000    
                        STRESS PERIOD TIME =    1.00000    
                     TOTAL SIMULATION TIME =    181.000    

end timestep


start timestep kper="182" kstp="1" mode="normal"


 OUTPUT CONTROL FOR STRESS PERIOD 182 IS REPEATED USING SETTINGS FROM A PREVIOUS STRESS PERIOD.


 STRESS PERIOD 182 IS TRANSIENT


 REUSING WELS FROM LAST STRESS PERIOD

 REUSING DRNS FROM LAST STRESS PERIOD

 REUSING RCHS FROM LAST STRESS PERIOD


  VOLUME BUDGET FOR ENTIRE MODEL AT END OF TIME STEP    1, STRESS PERIOD 182
  ---------------------------------------------------------------------------------------------------

     CUMULATIVE VOLUME      L**3       RATES FOR THIS TIME STEP      L**3/T          PACKAGE NAME    
     ------------------                 ------------------------                     ----------------

           IN:                                      IN:
           ---                                      ---
              STO-SS =           0.0000                STO-SS =           0.0000     STORAGE         
              STO-SY =  3877895454.1127                STO-SY =    22962081.0412     STORAGE         
                 WEL =           0.0000                   WEL =           0.0000     WEL_0           
                 DRN =           0.0000                   DRN =           0.0000     DRN_0           
                 RCH = 15564279316.7152                   RCH =    24870867.8012     RCH_0           

            TOTAL IN = 19442174770.8280              TOTAL IN =    47832948.8424

          OUT:                                     OUT:
          ----                                     ----
              STO-SS =           0.0000                STO-SS =           0.0000     STORAGE         
              STO-SY =  3843191208.6423                STO-SY =     1996586.8400     STORAGE         
                 WEL =  1257133304.6427                   WEL =     1559640.9351     WEL_0           
                 DRN = 14341845733.9363                   DRN =    44276721.3545     DRN_0           
                 RCH =           0.0000                   RCH =           0.0000     RCH_0           

           TOTAL OUT = 19442170247.2214             TOTAL OUT =    47832949.1296

            IN - OUT =        4523.6066              IN - OUT =          -0.2872

 PERCENT DISCREPANCY =           0.00     PERCENT DISCREPANCY =          -0.00




         TIME SUMMARY AT END OF TIME STEP    1 IN STRESS PERIOD  182
                          TIME STEP LENGTH =    1.00000    
                        STRESS PERIOD TIME =    1.00000    
                     TOTAL SIMULATION TIME =    182.000    

end timestep


start timestep kper="183" kstp="1" mode="normal"


 OUTPUT CONTROL FOR STRESS PERIOD 183 IS REPEATED USING SETTINGS FROM A PREVIOUS STRESS PERIOD.


 STRESS PERIOD 183 IS TRANSIENT


 REUSING WELS FROM LAST STRESS PERIOD

 REUSING DRNS FROM LAST STRESS PERIOD

 REUSING RCHS FROM LAST STRESS PERIOD


  VOLUME BUDGET FOR ENTIRE MODEL AT END OF TIME STEP    1, STRESS PERIOD 183
  ---------------------------------------------------------------------------------------------------

     CUMULATIVE VOLUME      L**3       RATES FOR THIS TIME STEP      L**3/T          PACKAGE NAME    
     ------------------                 ------------------------                     ----------------

           IN:                                      IN:
           ---                                      ---
              STO-SS =           0.0000                STO-SS =           0.0000     STORAGE         
              STO-SY =  3900839446.2875                STO-SY =    22943992.1747     STORAGE         
                 WEL =           0.0000                   WEL =           0.0000     WEL_0           
                 DRN =           0.0000                   DRN =           0.0000     DRN_0           
                 RCH = 15585701845.1678                   RCH =    21422528.4526     RCH_0           

            TOTAL IN = 19486541291.4553              TOTAL IN =    44366520.6273

          OUT:                                     OUT:
          ----                                     ----
              STO-SS =           0.0000                STO-SS =           0.0000     STORAGE         
              STO-SY =  3845164056.8910                STO-SY =     1972848.2487     STORAGE         
                 WEL =  1258646976.4538                   WEL =     1513671.8111     WEL_0           
                 DRN = 14382725727.1603                   DRN =    40879993.2240     DRN_0           
                 RCH =           0.0000                   RCH =           0.0000     RCH_0           

           TOTAL OUT = 19486536760.5051             TOTAL OUT =    44366513.2838

            IN - OUT =        4530.9501              IN - OUT =           7.3435

 PERCENT DISCREPANCY =           0.00     PERCENT DISCREPANCY =           0.00




         TIME SUMMARY AT END OF TIME STEP    1 IN STRESS PERIOD  183
                          TIME STEP LENGTH =    1.00000    
                        STRESS PERIOD TIME =    1.00000    
                     TOTAL SIMULATION TIME =    183.000    

end timestep


start timestep kper="184" kstp="1" mode="normal"


 OUTPUT CONTROL FOR STRESS PERIOD 184 IS REPEATED USING SETTINGS FROM A PREVIOUS STRESS PERIOD.


 STRESS PERIOD 184 IS TRANSIENT


 REUSING WELS FROM LAST STRESS PERIOD

 REUSING DRNS FROM LAST STRESS PERIOD

 REUSING RCHS FROM LAST STRESS PERIOD


  VOLUME BUDGET FOR ENTIRE MODEL AT END OF TIME STEP    1, STRESS PERIOD 184
  ---------------------------------------------------------------------------------------------------

     CUMULATIVE VOLUME      L**3       RATES FOR THIS TIME STEP      L**3/T          PACKAGE NAME    
     ------------------                 ------------------------                     ----------------

           IN:                                      IN:
           ---                                      ---
              STO-SS =           0.0000                STO-SS =           0.0000     STORAGE         
              STO-SY =  3923931251.3534                STO-SY =    23091805.0659     STORAGE         
                 WEL =           0.0000                   WEL =           0.0000     WEL_0           
                 DRN =           0.0000                   DRN =           0.0000     DRN_0           
                 RCH = 15608419579.7674                   RCH =    22717734.5996     RCH_0           

            TOTAL IN = 19532350831.1208              TOTAL IN =    45809539.6655

          OUT:                                     OUT:
          ----                                     ----
              STO-SS =           0.0000                STO-SS =           0.0000     STORAGE         
              STO-SY =  3846978404.3870                STO-SY =     1814347.4960     STORAGE         
                 WEL =  1260212523.6196                   WEL =     1565547.1658     WEL_0           
                 DRN = 14425155361.9677                   DRN =    42429634.8074     DRN_0           
                 RCH =           0.0000                   RCH =           0.0000     RCH_0           

           TOTAL OUT = 19532346289.9743             TOTAL OUT =    45809529.4692

            IN - OUT =        4541.1464              IN - OUT =          10.1963

 PERCENT DISCREPANCY =           0.00     PERCENT DISCREPANCY =           0.00




         TIME SUMMARY AT END OF TIME STEP    1 IN STRESS PERIOD  184
                          TIME STEP LENGTH =    1.00000    
                        STRESS PERIOD TIME =    1.00000    
                     TOTAL SIMULATION TIME =    184.000    

end timestep


start timestep kper="185" kstp="1" mode="normal"


 OUTPUT CONTROL FOR STRESS PERIOD 185 IS REPEATED USING SETTINGS FROM A PREVIOUS STRESS PERIOD.


 STRESS PERIOD 185 IS TRANSIENT


 REUSING WELS FROM LAST STRESS PERIOD

 REUSING DRNS FROM LAST STRESS PERIOD

 REUSING RCHS FROM LAST STRESS PERIOD


  VOLUME BUDGET FOR ENTIRE MODEL AT END OF TIME STEP    1, STRESS PERIOD 185
  ---------------------------------------------------------------------------------------------------

     CUMULATIVE VOLUME      L**3       RATES FOR THIS TIME STEP      L**3/T          PACKAGE NAME    
     ------------------                 ------------------------                     ----------------

           IN:                                      IN:
           ---                                      ---
              STO-SS =           0.0000                STO-SS =           0.0000     STORAGE         
              STO-SY =  3948105416.9372                STO-SY =    24174165.5838     STORAGE         
                 WEL =           0.0000                   WEL =           0.0000     WEL_0           
                 DRN =           0.0000                   DRN =           0.0000     DRN_0           
                 RCH = 15628030784.9487                   RCH =    19611205.1813     RCH_0           

            TOTAL IN = 19576136201.8859              TOTAL IN =    43785370.7651

          OUT:                                     OUT:
          ----                                     ----
              STO-SS =           0.0000                STO-SS =           0.0000     STORAGE         
              STO-SY =  3848765460.3981                STO-SY =     1787056.0111     STORAGE         
                 WEL =  1263130729.0277                   WEL =     2918205.4081     WEL_0           
                 DRN = 14464235379.6921                   DRN =    39080017.7243     DRN_0           
                 RCH =           0.0000                   RCH =           0.0000     RCH_0           

           TOTAL OUT = 19576131569.1179             TOTAL OUT =    43785279.1435

            IN - OUT =        4632.7680              IN - OUT =          91.6216

 PERCENT DISCREPANCY =           0.00     PERCENT DISCREPANCY =           0.00




         TIME SUMMARY AT END OF TIME STEP    1 IN STRESS PERIOD  185
                          TIME STEP LENGTH =    1.00000    
                        STRESS PERIOD TIME =    1.00000    
                     TOTAL SIMULATION TIME =    185.000    

end timestep


start timestep kper="186" kstp="1" mode="normal"


 OUTPUT CONTROL FOR STRESS PERIOD 186 IS REPEATED USING SETTINGS FROM A PREVIOUS STRESS PERIOD.


 STRESS PERIOD 186 IS TRANSIENT


 REUSING WELS FROM LAST STRESS PERIOD

 REUSING DRNS FROM LAST STRESS PERIOD

 REUSING RCHS FROM LAST STRESS PERIOD


  VOLUME BUDGET FOR ENTIRE MODEL AT END OF TIME STEP    1, STRESS PERIOD 186
  ---------------------------------------------------------------------------------------------------

     CUMULATIVE VOLUME      L**3       RATES FOR THIS TIME STEP      L**3/T          PACKAGE NAME    
     ------------------                 ------------------------                     ----------------

           IN:                                      IN:
           ---                                      ---
              STO-SS =           0.0000                STO-SS =           0.0000     STORAGE         
              STO-SY =  3971224808.4013                STO-SY =    23119391.4641     STORAGE         
                 WEL =           0.0000                   WEL =           0.0000     WEL_0           
                 DRN =           0.0000                   DRN =           0.0000     DRN_0           
                 RCH = 15649026111.0178                   RCH =    20995326.0691     RCH_0           

            TOTAL IN = 19620250919.4191              TOTAL IN =    44114717.5332

          OUT:                                     OUT:
          ----                                     ----
              STO-SS =           0.0000                STO-SS =           0.0000     STORAGE         
              STO-SY =  3850477226.5056                STO-SY =     1711766.1075     STORAGE         
                 WEL =  1264665475.5214                   WEL =     1534746.4936     WEL_0           
                 DRN = 14505103591.5347                   DRN =    40868211.8426     DRN_0           
                 RCH =           0.0000                   RCH =           0.0000     RCH_0           

           TOTAL OUT = 19620246293.5617             TOTAL OUT =    44114724.4438

            IN - OUT =        4625.8574              IN - OUT =          -6.9106

 PERCENT DISCREPANCY =           0.00     PERCENT DISCREPANCY =          -0.00




         TIME SUMMARY AT END OF TIME STEP    1 IN STRESS PERIOD  186
                          TIME STEP LENGTH =    1.00000    
                        STRESS PERIOD TIME =    1.00000    
                     TOTAL SIMULATION TIME =    186.000    

end timestep


start timestep kper="187" kstp="1" mode="normal"


 OUTPUT CONTROL FOR STRESS PERIOD 187 IS REPEATED USING SETTINGS FROM A PREVIOUS STRESS PERIOD.


 STRESS PERIOD 187 IS TRANSIENT


 REUSING WELS FROM LAST STRESS PERIOD

 REUSING DRNS FROM LAST STRESS PERIOD

 REUSING RCHS FROM LAST STRESS PERIOD


  VOLUME BUDGET FOR ENTIRE MODEL AT END OF TIME STEP    1, STRESS PERIOD 187
  ---------------------------------------------------------------------------------------------------

     CUMULATIVE VOLUME      L**3       RATES FOR THIS TIME STEP      L**3/T          PACKAGE NAME    
     ------------------                 ------------------------                     ----------------

           IN:                                      IN:
           ---                                      ---
              STO-SS =           0.0000                STO-SS =           0.0000     STORAGE         
              STO-SY =  3994204143.9589                STO-SY =    22979335.5576     STORAGE         
                 WEL =           0.0000                   WEL =           0.0000     WEL_0           
                 DRN =           0.0000                   DRN =           0.0000     DRN_0           
                 RCH = 15667030112.3353                   RCH =    18004001.3175     RCH_0           

            TOTAL IN = 19661234256.2943              TOTAL IN =    40983336.8752

          OUT:                                     OUT:
          ----                                     ----
              STO-SS =           0.0000                STO-SS =           0.0000     STORAGE         
              STO-SY =  3852072673.4377                STO-SY =     1595446.9321     STORAGE         
                 WEL =  1266155492.0820                   WEL =     1490016.5606     WEL_0           
                 DRN = 14543001445.1201                   DRN =    37897853.5854     DRN_0           
                 RCH =           0.0000                   RCH =           0.0000     RCH_0           

           TOTAL OUT = 19661229610.6398             TOTAL OUT =    40983317.0781

            IN - OUT =        4645.6545              IN - OUT =          19.7971

 PERCENT DISCREPANCY =           0.00     PERCENT DISCREPANCY =           0.00




         TIME SUMMARY AT END OF TIME STEP    1 IN STRESS PERIOD  187
                          TIME STEP LENGTH =    1.00000    
                        STRESS PERIOD TIME =    1.00000    
                     TOTAL SIMULATION TIME =    187.000    

end timestep


start timestep kper="188" kstp="1" mode="normal"


 OUTPUT CONTROL FOR STRESS PERIOD 188 IS REPEATED USING SETTINGS FROM A PREVIOUS STRESS PERIOD.


 STRESS PERIOD 188 IS TRANSIENT


 REUSING WELS FROM LAST STRESS PERIOD

 REUSING DRNS FROM LAST STRESS PERIOD

 REUSING RCHS FROM LAST STRESS PERIOD


  VOLUME BUDGET FOR ENTIRE MODEL AT END OF TIME STEP    1, STRESS PERIOD 188
  ---------------------------------------------------------------------------------------------------

     CUMULATIVE VOLUME      L**3       RATES FOR THIS TIME STEP      L**3/T          PACKAGE NAME    
     ------------------                 ------------------------                     ----------------

           IN:                                      IN:
           ---                                      ---
              STO-SS =           0.0000                STO-SS =           0.0000     STORAGE         
              STO-SY =  4017068220.0166                STO-SY =    22864076.0577     STORAGE         
                 WEL =           0.0000                   WEL =           0.0000     WEL_0           
                 DRN =           0.0000                   DRN =           0.0000     DRN_0           
                 RCH = 15687050624.2322                   RCH =    20020511.8968     RCH_0           

            TOTAL IN = 19704118844.2488              TOTAL IN =    42884587.9545

          OUT:                                     OUT:
          ----                                     ----
              STO-SS =           0.0000                STO-SS =           0.0000     STORAGE         
              STO-SY =  3853708945.6516                STO-SY =     1636272.2138     STORAGE         
                 WEL =  1267701716.2055                   WEL =     1546224.1235     WEL_0           
                 DRN = 14582703534.9062                   DRN =    39702089.7862     DRN_0           
                 RCH =           0.0000                   RCH =           0.0000     RCH_0           

           TOTAL OUT = 19704114196.7633             TOTAL OUT =    42884586.1235

            IN - OUT =        4647.4855              IN - OUT =           1.8310

 PERCENT DISCREPANCY =           0.00     PERCENT DISCREPANCY =           0.00




         TIME SUMMARY AT END OF TIME STEP    1 IN STRESS PERIOD  188
                          TIME STEP LENGTH =    1.00000    
                        STRESS PERIOD TIME =    1.00000    
                     TOTAL SIMULATION TIME =    188.000    

end timestep


start timestep kper="189" kstp="1" mode="normal"


 OUTPUT CONTROL FOR STRESS PERIOD 189 IS REPEATED USING SETTINGS FROM A PREVIOUS STRESS PERIOD.


 STRESS PERIOD 189 IS TRANSIENT


 REUSING WELS FROM LAST STRESS PERIOD

 REUSING DRNS FROM LAST STRESS PERIOD

 REUSING RCHS FROM LAST STRESS PERIOD


  VOLUME BUDGET FOR ENTIRE MODEL AT END OF TIME STEP    1, STRESS PERIOD 189
  ---------------------------------------------------------------------------------------------------

     CUMULATIVE VOLUME      L**3       RATES FOR THIS TIME STEP      L**3/T          PACKAGE NAME    
     ------------------                 ------------------------                     ----------------

           IN:                                      IN:
           ---                                      ---
              STO-SS =           0.0000                STO-SS =           0.0000     STORAGE         
              STO-SY =  4040112294.4973                STO-SY =    23044074.4807     STORAGE         
                 WEL =           0.0000                   WEL =           0.0000     WEL_0           
                 DRN =           0.0000                   DRN =           0.0000     DRN_0           
                 RCH = 15704150238.4560                   RCH =    17099614.2238     RCH_0           

            TOTAL IN = 19744262532.9533              TOTAL IN =    40143688.7045

          OUT:                                     OUT:
          ----                                     ----
              STO-SS =           0.0000                STO-SS =           0.0000     STORAGE         
              STO-SY =  3855236515.5999                STO-SY =     1527569.9483     STORAGE         
                 WEL =  1269577056.5161                   WEL =     1875340.3106     WEL_0           
                 DRN = 14619444303.8317                   DRN =    36740768.9255     DRN_0           
                 RCH =           0.0000                   RCH =           0.0000     RCH_0           

           TOTAL OUT = 19744257875.9477             TOTAL OUT =    40143679.1844

            IN - OUT =        4657.0056              IN - OUT =           9.5201

 PERCENT DISCREPANCY =           0.00     PERCENT DISCREPANCY =           0.00




         TIME SUMMARY AT END OF TIME STEP    1 IN STRESS PERIOD  189
                          TIME STEP LENGTH =    1.00000    
                        STRESS PERIOD TIME =    1.00000    
                     TOTAL SIMULATION TIME =    189.000    

end timestep


start timestep kper="190" kstp="1" mode="normal"


 OUTPUT CONTROL FOR STRESS PERIOD 190 IS REPEATED USING SETTINGS FROM A PREVIOUS STRESS PERIOD.


 STRESS PERIOD 190 IS TRANSIENT


 REUSING WELS FROM LAST STRESS PERIOD

 REUSING DRNS FROM LAST STRESS PERIOD

 REUSING RCHS FROM LAST STRESS PERIOD


  VOLUME BUDGET FOR ENTIRE MODEL AT END OF TIME STEP    1, STRESS PERIOD 190
  ---------------------------------------------------------------------------------------------------

     CUMULATIVE VOLUME      L**3       RATES FOR THIS TIME STEP      L**3/T          PACKAGE NAME    
     ------------------                 ------------------------                     ----------------

           IN:                                      IN:
           ---                                      ---
              STO-SS =           0.0000                STO-SS =           0.0000     STORAGE         
              STO-SY =  4064619394.0616                STO-SY =    24507099.5643     STORAGE         
                 WEL =           0.0000                   WEL =           0.0000     WEL_0           
                 DRN =           0.0000                   DRN =           0.0000     DRN_0           
                 RCH = 15723670027.9277                   RCH =    19519789.4717     RCH_0           

            TOTAL IN = 19788289421.9893              TOTAL IN =    44026889.0360

          OUT:                                     OUT:
          ----                                     ----
              STO-SS =           0.0000                STO-SS =           0.0000     STORAGE         
              STO-SY =  3856916668.4812                STO-SY =     1680152.8813     STORAGE         
                 WEL =  1273585160.4926                   WEL =     4008103.9765     WEL_0           
                 DRN = 14657782935.6225                   DRN =    38338631.7908     DRN_0           
                 RCH =           0.0000                   RCH =           0.0000     RCH_0           

           TOTAL OUT = 19788284764.5962             TOTAL OUT =    44026888.6485

            IN - OUT =        4657.3930              IN - OUT =           0.3875

 PERCENT DISCREPANCY =           0.00     PERCENT DISCREPANCY =           0.00




         TIME SUMMARY AT END OF TIME STEP    1 IN STRESS PERIOD  190
                          TIME STEP LENGTH =    1.00000    
                        STRESS PERIOD TIME =    1.00000    
                     TOTAL SIMULATION TIME =    190.000    

end timestep


start timestep kper="191" kstp="1" mode="normal"


 OUTPUT CONTROL FOR STRESS PERIOD 191 IS REPEATED USING SETTINGS FROM A PREVIOUS STRESS PERIOD.


 STRESS PERIOD 191 IS TRANSIENT


 REUSING WELS FROM LAST STRESS PERIOD

 REUSING DRNS FROM LAST STRESS PERIOD

 REUSING RCHS FROM LAST STRESS PERIOD


  VOLUME BUDGET FOR ENTIRE MODEL AT END OF TIME STEP    1, STRESS PERIOD 191
  ---------------------------------------------------------------------------------------------------

     CUMULATIVE VOLUME      L**3       RATES FOR THIS TIME STEP      L**3/T          PACKAGE NAME    
     ------------------                 ------------------------                     ----------------

           IN:                                      IN:
           ---                                      ---
              STO-SS =           0.0000                STO-SS =           0.0000     STORAGE         
              STO-SY =  4087371780.3780                STO-SY =    22752386.3164     STORAGE         
                 WEL =           0.0000                   WEL =           0.0000     WEL_0           
                 DRN =           0.0000                   DRN =           0.0000     DRN_0           
                 RCH = 15739327534.6900                   RCH =    15657506.7623     RCH_0           

            TOTAL IN = 19826699315.0680              TOTAL IN =    38409893.0787

          OUT:                                     OUT:
          ----                                     ----
              STO-SS =           0.0000                STO-SS =           0.0000     STORAGE         
              STO-SY =  3858322614.4551                STO-SY =     1405945.9739     STORAGE         
                 WEL =  1275066544.4440                   WEL =     1481383.9514     WEL_0           
                 DRN = 14693305483.8724                   DRN =    35522548.2499     DRN_0           
                 RCH =           0.0000                   RCH =           0.0000     RCH_0           

           TOTAL OUT = 19826694642.7715             TOTAL OUT =    38409878.1753

            IN - OUT =        4672.2965              IN - OUT =          14.9035

 PERCENT DISCREPANCY =           0.00     PERCENT DISCREPANCY =           0.00




         TIME SUMMARY AT END OF TIME STEP    1 IN STRESS PERIOD  191
                          TIME STEP LENGTH =    1.00000    
                        STRESS PERIOD TIME =    1.00000    
                     TOTAL SIMULATION TIME =    191.000    

end timestep


start timestep kper="192" kstp="1" mode="normal"


 OUTPUT CONTROL FOR STRESS PERIOD 192 IS REPEATED USING SETTINGS FROM A PREVIOUS STRESS PERIOD.


 STRESS PERIOD 192 IS TRANSIENT


 REUSING WELS FROM LAST STRESS PERIOD

 REUSING DRNS FROM LAST STRESS PERIOD

 REUSING RCHS FROM LAST STRESS PERIOD


  VOLUME BUDGET FOR ENTIRE MODEL AT END OF TIME STEP    1, STRESS PERIOD 192
  ---------------------------------------------------------------------------------------------------

     CUMULATIVE VOLUME      L**3       RATES FOR THIS TIME STEP      L**3/T          PACKAGE NAME    
     ------------------                 ------------------------                     ----------------

           IN:                                      IN:
           ---                                      ---
              STO-SS =           0.0000                STO-SS =           0.0000     STORAGE         
              STO-SY =  4111522142.1683                STO-SY =    24150361.7903     STORAGE         
                 WEL =           0.0000                   WEL =           0.0000     WEL_0           
                 DRN =           0.0000                   DRN =           0.0000     DRN_0           
                 RCH = 15757729487.3392                   RCH =    18401952.6492     RCH_0           

            TOTAL IN = 19869251629.5075              TOTAL IN =    42552314.4395

          OUT:                                     OUT:
          ----                                     ----
              STO-SS =           0.0000                STO-SS =           0.0000     STORAGE         
              STO-SY =  3859989204.8199                STO-SY =     1666590.3648     STORAGE         
                 WEL =  1278889289.6555                   WEL =     3822745.2115     WEL_0           
                 DRN = 14730368402.7297                   DRN =    37062918.8573     DRN_0           
                 RCH =           0.0000                   RCH =           0.0000     RCH_0           

           TOTAL OUT = 19869246897.2051             TOTAL OUT =    42552254.4336

            IN - OUT =        4732.3024              IN - OUT =          60.0059

 PERCENT DISCREPANCY =           0.00     PERCENT DISCREPANCY =           0.00




         TIME SUMMARY AT END OF TIME STEP    1 IN STRESS PERIOD  192
                          TIME STEP LENGTH =    1.00000    
                        STRESS PERIOD TIME =    1.00000    
                     TOTAL SIMULATION TIME =    192.000    

end timestep


start timestep kper="193" kstp="1" mode="normal"


 OUTPUT CONTROL FOR STRESS PERIOD 193 IS REPEATED USING SETTINGS FROM A PREVIOUS STRESS PERIOD.


 STRESS PERIOD 193 IS TRANSIENT


 REUSING WELS FROM LAST STRESS PERIOD

 REUSING DRNS FROM LAST STRESS PERIOD

 REUSING RCHS FROM LAST STRESS PERIOD


  VOLUME BUDGET FOR ENTIRE MODEL AT END OF TIME STEP    1, STRESS PERIOD 193
  ---------------------------------------------------------------------------------------------------

     CUMULATIVE VOLUME      L**3       RATES FOR THIS TIME STEP      L**3/T          PACKAGE NAME    
     ------------------                 ------------------------                     ----------------

           IN:                                      IN:
           ---                                      ---
              STO-SS =           0.0000                STO-SS =           0.0000     STORAGE         
              STO-SY =  4134057703.4058                STO-SY =    22535561.2375     STORAGE         
                 WEL =           0.0000                   WEL =           0.0000     WEL_0           
                 DRN =           0.0000                   DRN =           0.0000     DRN_0           
                 RCH = 15772538777.8076                   RCH =    14809290.4684     RCH_0           

            TOTAL IN = 19906596481.2134              TOTAL IN =    37344851.7059

          OUT:                                     OUT:
          ----                                     ----
              STO-SS =           0.0000                STO-SS =           0.0000     STORAGE         
              STO-SY =  3861332666.5136                STO-SY =     1343461.6937     STORAGE         
                 WEL =  1280344364.1305                   WEL =     1455074.4750     WEL_0           
                 DRN = 14764914715.9900                   DRN =    34546313.2603     DRN_0           
                 RCH =           0.0000                   RCH =           0.0000     RCH_0           

           TOTAL OUT = 19906591746.6341             TOTAL OUT =    37344849.4290

            IN - OUT =        4734.5793              IN - OUT =           2.2769

 PERCENT DISCREPANCY =           0.00     PERCENT DISCREPANCY =           0.00




         TIME SUMMARY AT END OF TIME STEP    1 IN STRESS PERIOD  193
                          TIME STEP LENGTH =    1.00000    
                        STRESS PERIOD TIME =    1.00000    
                     TOTAL SIMULATION TIME =    193.000    

end timestep


start timestep kper="194" kstp="1" mode="normal"


 OUTPUT CONTROL FOR STRESS PERIOD 194 IS REPEATED USING SETTINGS FROM A PREVIOUS STRESS PERIOD.


 STRESS PERIOD 194 IS TRANSIENT


 REUSING WELS FROM LAST STRESS PERIOD

 REUSING DRNS FROM LAST STRESS PERIOD

 REUSING RCHS FROM LAST STRESS PERIOD


  VOLUME BUDGET FOR ENTIRE MODEL AT END OF TIME STEP    1, STRESS PERIOD 194
  ---------------------------------------------------------------------------------------------------

     CUMULATIVE VOLUME      L**3       RATES FOR THIS TIME STEP      L**3/T          PACKAGE NAME    
     ------------------                 ------------------------                     ----------------

           IN:                                      IN:
           ---                                      ---
              STO-SS =           0.0000                STO-SS =           0.0000     STORAGE         
              STO-SY =  4156384482.1082                STO-SY =    22326778.7024     STORAGE         
                 WEL =           0.0000                   WEL =           0.0000     WEL_0           
                 DRN =           0.0000                   DRN =           0.0000     DRN_0           
                 RCH = 15789139015.7296                   RCH =    16600237.9219     RCH_0           

            TOTAL IN = 19945523497.8378              TOTAL IN =    38927016.6244

          OUT:                                     OUT:
          ----                                     ----
              STO-SS =           0.0000                STO-SS =           0.0000     STORAGE         
              STO-SY =  3862699026.6675                STO-SY =     1366360.1539     STORAGE         
                 WEL =  1281818939.9894                   WEL =     1474575.8590     WEL_0           
                 DRN = 14801000798.8403                   DRN =    36086082.8502     DRN_0           
                 RCH =           0.0000                   RCH =           0.0000     RCH_0           

           TOTAL OUT = 19945518765.4972             TOTAL OUT =    38927018.8631

            IN - OUT =        4732.3406              IN - OUT =          -2.2387

 PERCENT DISCREPANCY =           0.00     PERCENT DISCREPANCY =          -0.00




         TIME SUMMARY AT END OF TIME STEP    1 IN STRESS PERIOD  194
                          TIME STEP LENGTH =    1.00000    
                        STRESS PERIOD TIME =    1.00000    
                     TOTAL SIMULATION TIME =    194.000    

end timestep


start timestep kper="195" kstp="1" mode="normal"


 OUTPUT CONTROL FOR STRESS PERIOD 195 IS REPEATED USING SETTINGS FROM A PREVIOUS STRESS PERIOD.


 STRESS PERIOD 195 IS TRANSIENT


 REUSING WELS FROM LAST STRESS PERIOD

 REUSING DRNS FROM LAST STRESS PERIOD

 REUSING RCHS FROM LAST STRESS PERIOD


  VOLUME BUDGET FOR ENTIRE MODEL AT END OF TIME STEP    1, STRESS PERIOD 195
  ---------------------------------------------------------------------------------------------------

     CUMULATIVE VOLUME      L**3       RATES FOR THIS TIME STEP      L**3/T          PACKAGE NAME    
     ------------------                 ------------------------                     ----------------

           IN:                                      IN:
           ---                                      ---
              STO-SS =           0.0000                STO-SS =           0.0000     STORAGE         
              STO-SY =  4179307747.3557                STO-SY =    22923265.2475     STORAGE         
                 WEL =           0.0000                   WEL =           0.0000     WEL_0           
                 DRN =           0.0000                   DRN =           0.0000     DRN_0           
                 RCH = 15803213151.3501                   RCH =    14074135.6205     RCH_0           

            TOTAL IN = 19982520898.7058              TOTAL IN =    36997400.8680

          OUT:                                     OUT:
          ----                                     ----
              STO-SS =           0.0000                STO-SS =           0.0000     STORAGE         
              STO-SY =  3863936620.6433                STO-SY =     1237593.9758     STORAGE         
                 WEL =  1284031009.2110                   WEL =     2212069.2216     WEL_0           
                 DRN = 14834548538.2028                   DRN =    33547739.3626     DRN_0           
                 RCH =           0.0000                   RCH =           0.0000     RCH_0           

           TOTAL OUT = 19982516168.0571             TOTAL OUT =    36997402.5600

            IN - OUT =        4730.6487              IN - OUT =          -1.6920

 PERCENT DISCREPANCY =           0.00     PERCENT DISCREPANCY =          -0.00




         TIME SUMMARY AT END OF TIME STEP    1 IN STRESS PERIOD  195
                          TIME STEP LENGTH =    1.00000    
                        STRESS PERIOD TIME =    1.00000    
                     TOTAL SIMULATION TIME =    195.000    

end timestep


start timestep kper="196" kstp="1" mode="normal"


 OUTPUT CONTROL FOR STRESS PERIOD 196 IS REPEATED USING SETTINGS FROM A PREVIOUS STRESS PERIOD.


 STRESS PERIOD 196 IS TRANSIENT


 REUSING WELS FROM LAST STRESS PERIOD

 REUSING DRNS FROM LAST STRESS PERIOD

 REUSING RCHS FROM LAST STRESS PERIOD


  VOLUME BUDGET FOR ENTIRE MODEL AT END OF TIME STEP    1, STRESS PERIOD 196
  ---------------------------------------------------------------------------------------------------

     CUMULATIVE VOLUME      L**3       RATES FOR THIS TIME STEP      L**3/T          PACKAGE NAME    
     ------------------                 ------------------------                     ----------------

           IN:                                      IN:
           ---                                      ---
              STO-SS =           0.0000                STO-SS =           0.0000     STORAGE         
              STO-SY =  4202444788.6658                STO-SY =    23137041.3101     STORAGE         
                 WEL =           0.0000                   WEL =           0.0000     WEL_0           
                 DRN =           0.0000                   DRN =           0.0000     DRN_0           
                 RCH = 15819343420.4615                   RCH =    16130269.1114     RCH_0           

            TOTAL IN = 20021788209.1273              TOTAL IN =    39267310.4215

          OUT:                                     OUT:
          ----                                     ----
              STO-SS =           0.0000                STO-SS =           0.0000     STORAGE         
              STO-SY =  3865353864.6251                STO-SY =     1417243.9818     STORAGE         
                 WEL =  1286890379.6211                   WEL =     2859370.4101     WEL_0           
                 DRN = 14869539215.3946                   DRN =    34990677.1918     DRN_0           
                 RCH =           0.0000                   RCH =           0.0000     RCH_0           

           TOTAL OUT = 20021783459.6408             TOTAL OUT =    39267291.5837

            IN - OUT =        4749.4865              IN - OUT =          18.8379

 PERCENT DISCREPANCY =           0.00     PERCENT DISCREPANCY =           0.00




         TIME SUMMARY AT END OF TIME STEP    1 IN STRESS PERIOD  196
                          TIME STEP LENGTH =    1.00000    
                        STRESS PERIOD TIME =    1.00000    
                     TOTAL SIMULATION TIME =    196.000    

end timestep


start timestep kper="197" kstp="1" mode="normal"


 OUTPUT CONTROL FOR STRESS PERIOD 197 IS REPEATED USING SETTINGS FROM A PREVIOUS STRESS PERIOD.


 STRESS PERIOD 197 IS TRANSIENT


 REUSING WELS FROM LAST STRESS PERIOD

 REUSING DRNS FROM LAST STRESS PERIOD

 REUSING RCHS FROM LAST STRESS PERIOD


  VOLUME BUDGET FOR ENTIRE MODEL AT END OF TIME STEP    1, STRESS PERIOD 197
  ---------------------------------------------------------------------------------------------------

     CUMULATIVE VOLUME      L**3       RATES FOR THIS TIME STEP      L**3/T          PACKAGE NAME    
     ------------------                 ------------------------                     ----------------

           IN:                                      IN:
           ---                                      ---
              STO-SS =           0.0000                STO-SS =           0.0000     STORAGE         
              STO-SY =  4226255001.2849                STO-SY =    23810212.6192     STORAGE         
                 WEL =           0.0000                   WEL =           0.0000     WEL_0           
                 DRN =           0.0000                   DRN =           0.0000     DRN_0           
                 RCH = 15833265008.1649                   RCH =    13921587.7033     RCH_0           

            TOTAL IN = 20059520009.4498              TOTAL IN =    37731800.3225

          OUT:                                     OUT:
          ----                                     ----
              STO-SS =           0.0000                STO-SS =           0.0000     STORAGE         
              STO-SY =  3866667268.6927                STO-SY =     1313404.0676     STORAGE         
                 WEL =  1290645821.4691                   WEL =     3755441.8480     WEL_0           
                 DRN = 14902202171.7273                   DRN =    32662956.3327     DRN_0           
                 RCH =           0.0000                   RCH =           0.0000     RCH_0           

           TOTAL OUT = 20059515261.8891             TOTAL OUT =    37731802.2483

            IN - OUT =        4747.5607              IN - OUT =          -1.9258

 PERCENT DISCREPANCY =           0.00     PERCENT DISCREPANCY =          -0.00




         TIME SUMMARY AT END OF TIME STEP    1 IN STRESS PERIOD  197
                          TIME STEP LENGTH =    1.00000    
                        STRESS PERIOD TIME =    1.00000    
                     TOTAL SIMULATION TIME =    197.000    

end timestep


start timestep kper="198" kstp="1" mode="normal"


 OUTPUT CONTROL FOR STRESS PERIOD 198 IS REPEATED USING SETTINGS FROM A PREVIOUS STRESS PERIOD.


 STRESS PERIOD 198 IS TRANSIENT


 REUSING WELS FROM LAST STRESS PERIOD

 REUSING DRNS FROM LAST STRESS PERIOD

 REUSING RCHS FROM LAST STRESS PERIOD


  VOLUME BUDGET FOR ENTIRE MODEL AT END OF TIME STEP    1, STRESS PERIOD 198
  ---------------------------------------------------------------------------------------------------

     CUMULATIVE VOLUME      L**3       RATES FOR THIS TIME STEP      L**3/T          PACKAGE NAME    
     ------------------                 ------------------------                     ----------------

           IN:                                      IN:
           ---                                      ---
              STO-SS =           0.0000                STO-SS =           0.0000     STORAGE         
              STO-SY =  4248224872.9380                STO-SY =    21969871.6530     STORAGE         
                 WEL =           0.0000                   WEL =           0.0000     WEL_0           
                 DRN =           0.0000                   DRN =           0.0000     DRN_0           
                 RCH = 15848116179.2134                   RCH =    14851171.0485     RCH_0           

            TOTAL IN = 20096341052.1514              TOTAL IN =    36821042.7015

          OUT:                                     OUT:
          ----                                     ----
              STO-SS =           0.0000                STO-SS =           0.0000     STORAGE         
              STO-SY =  3867882861.3844                STO-SY =     1215592.6918     STORAGE         
                 WEL =  1292134897.9408                   WEL =     1489076.4716     WEL_0           
                 DRN = 14936318525.4337                   DRN =    34116353.7064     DRN_0           
                 RCH =           0.0000                   RCH =           0.0000     RCH_0           

           TOTAL OUT = 20096336284.7589             TOTAL OUT =    36821022.8698

            IN - OUT =        4767.3925              IN - OUT =          19.8318

 PERCENT DISCREPANCY =           0.00     PERCENT DISCREPANCY =           0.00




         TIME SUMMARY AT END OF TIME STEP    1 IN STRESS PERIOD  198
                          TIME STEP LENGTH =    1.00000    
                        STRESS PERIOD TIME =    1.00000    
                     TOTAL SIMULATION TIME =    198.000    

end timestep


start timestep kper="199" kstp="1" mode="normal"


 OUTPUT CONTROL FOR STRESS PERIOD 199 IS REPEATED USING SETTINGS FROM A PREVIOUS STRESS PERIOD.


 STRESS PERIOD 199 IS TRANSIENT


 REUSING WELS FROM LAST STRESS PERIOD

 REUSING DRNS FROM LAST STRESS PERIOD

 REUSING RCHS FROM LAST STRESS PERIOD


  VOLUME BUDGET FOR ENTIRE MODEL AT END OF TIME STEP    1, STRESS PERIOD 199
  ---------------------------------------------------------------------------------------------------

     CUMULATIVE VOLUME      L**3       RATES FOR THIS TIME STEP      L**3/T          PACKAGE NAME    
     ------------------                 ------------------------                     ----------------

           IN:                                      IN:
           ---                                      ---
              STO-SS =           0.0000                STO-SS =           0.0000     STORAGE         
              STO-SY =  4270886163.4173                STO-SY =    22661290.4793     STORAGE         
                 WEL =           0.0000                   WEL =           0.0000     WEL_0           
                 DRN =           0.0000                   DRN =           0.0000     DRN_0           
                 RCH = 15860846222.3520                   RCH =    12730043.1386     RCH_0           

            TOTAL IN = 20131732385.7693              TOTAL IN =    35391333.6180

          OUT:                                     OUT:
          ----                                     ----
              STO-SS =           0.0000                STO-SS =           0.0000     STORAGE         
              STO-SY =  3869014522.0625                STO-SY =     1131660.6781     STORAGE         
                 WEL =  1294578008.2562                   WEL =     2443110.3154     WEL_0           
                 DRN = 14968135079.1883                   DRN =    31816553.7546     DRN_0           
                 RCH =           0.0000                   RCH =           0.0000     RCH_0           

           TOTAL OUT = 20131727609.5070             TOTAL OUT =    35391324.7481

            IN - OUT =        4776.2623              IN - OUT =           8.8698

 PERCENT DISCREPANCY =           0.00     PERCENT DISCREPANCY =           0.00




         TIME SUMMARY AT END OF TIME STEP    1 IN STRESS PERIOD  199
                          TIME STEP LENGTH =    1.00000    
                        STRESS PERIOD TIME =    1.00000    
                     TOTAL SIMULATION TIME =    199.000    

end timestep


start timestep kper="200" kstp="1" mode="normal"


 OUTPUT CONTROL FOR STRESS PERIOD 200 IS REPEATED USING SETTINGS FROM A PREVIOUS STRESS PERIOD.


 STRESS PERIOD 200 IS TRANSIENT


 REUSING WELS FROM LAST STRESS PERIOD

 REUSING DRNS FROM LAST STRESS PERIOD

 REUSING RCHS FROM LAST STRESS PERIOD


  VOLUME BUDGET FOR ENTIRE MODEL AT END OF TIME STEP    1, STRESS PERIOD 200
  ---------------------------------------------------------------------------------------------------

     CUMULATIVE VOLUME      L**3       RATES FOR THIS TIME STEP      L**3/T          PACKAGE NAME    
     ------------------                 ------------------------                     ----------------

           IN:                                      IN:
           ---                                      ---
              STO-SS =           0.0000                STO-SS =           0.0000     STORAGE         
              STO-SY =  4292648054.5750                STO-SY =    21761891.1577     STORAGE         
                 WEL =           0.0000                   WEL =           0.0000     WEL_0           
                 DRN =           0.0000                   DRN =           0.0000     DRN_0           
                 RCH = 15874980878.6949                   RCH =    14134656.3428     RCH_0           

            TOTAL IN = 20167628933.2698              TOTAL IN =    35896547.5005

          OUT:                                     OUT:
          ----                                     ----
              STO-SS =           0.0000                STO-SS =           0.0000     STORAGE         
              STO-SY =  3870175828.7312                STO-SY =     1161306.6687     STORAGE         
                 WEL =  1296072605.6508                   WEL =     1494597.3946     WEL_0           
                 DRN = 15001375717.3896                   DRN =    33240638.2014     DRN_0           
                 RCH =           0.0000                   RCH =           0.0000     RCH_0           

           TOTAL OUT = 20167624151.7717             TOTAL OUT =    35896542.2647

            IN - OUT =        4781.4982              IN - OUT =           5.2359

 PERCENT DISCREPANCY =           0.00     PERCENT DISCREPANCY =           0.00




         TIME SUMMARY AT END OF TIME STEP    1 IN STRESS PERIOD  200
                          TIME STEP LENGTH =    1.00000    
                        STRESS PERIOD TIME =    1.00000    
                     TOTAL SIMULATION TIME =    200.000    

end timestep


start timestep kper="201" kstp="1" mode="normal"


 OUTPUT CONTROL FOR STRESS PERIOD 201 IS REPEATED USING SETTINGS FROM A PREVIOUS STRESS PERIOD.


 STRESS PERIOD 201 IS TRANSIENT


 REUSING WELS FROM LAST STRESS PERIOD

 REUSING DRNS FROM LAST STRESS PERIOD

 REUSING RCHS FROM LAST STRESS PERIOD


  VOLUME BUDGET FOR ENTIRE MODEL AT END OF TIME STEP    1, STRESS PERIOD 201
  ---------------------------------------------------------------------------------------------------

     CUMULATIVE VOLUME      L**3       RATES FOR THIS TIME STEP      L**3/T          PACKAGE NAME    
     ------------------                 ------------------------                     ----------------

           IN:                                      IN:
           ---                                      ---
              STO-SS =           0.0000                STO-SS =           0.0000     STORAGE         
              STO-SY =  4317852663.8094                STO-SY =    25204609.2344     STORAGE         
                 WEL =           0.0000                   WEL =           0.0000     WEL_0           
                 DRN =           0.0000                   DRN =           0.0000     DRN_0           
                 RCH = 15888579881.6587                   RCH =    13599002.9639     RCH_0           

            TOTAL IN = 20206432545.4681              TOTAL IN =    38803612.1983

          OUT:                                     OUT:
          ----                                     ----
              STO-SS =           0.0000                STO-SS =           0.0000     STORAGE         
              STO-SY =  3871548882.8329                STO-SY =     1373054.1016     STORAGE         
                 WEL =  1302509847.2220                   WEL =     6437241.5712     WEL_0           
                 DRN = 15032369033.7518                   DRN =    30993316.3622     DRN_0           
                 RCH =           0.0000                   RCH =           0.0000     RCH_0           

           TOTAL OUT = 20206427763.8067             TOTAL OUT =    38803612.0350

            IN - OUT =        4781.6614              IN - OUT =           0.1633

 PERCENT DISCREPANCY =           0.00     PERCENT DISCREPANCY =           0.00




         TIME SUMMARY AT END OF TIME STEP    1 IN STRESS PERIOD  201
                          TIME STEP LENGTH =    1.00000    
                        STRESS PERIOD TIME =    1.00000    
                     TOTAL SIMULATION TIME =    201.000    

end timestep


start timestep kper="202" kstp="1" mode="normal"


 OUTPUT CONTROL FOR STRESS PERIOD 202 IS REPEATED USING SETTINGS FROM A PREVIOUS STRESS PERIOD.


 STRESS PERIOD 202 IS TRANSIENT


 REUSING WELS FROM LAST STRESS PERIOD

 REUSING DRNS FROM LAST STRESS PERIOD

 REUSING RCHS FROM LAST STRESS PERIOD


  VOLUME BUDGET FOR ENTIRE MODEL AT END OF TIME STEP    1, STRESS PERIOD 202
  ---------------------------------------------------------------------------------------------------

     CUMULATIVE VOLUME      L**3       RATES FOR THIS TIME STEP      L**3/T          PACKAGE NAME    
     ------------------                 ------------------------                     ----------------

           IN:                                      IN:
           ---                                      ---
              STO-SS =           0.0000                STO-SS =           0.0000     STORAGE         
              STO-SY =  4339391189.8067                STO-SY =    21538525.9973     STORAGE         
                 WEL =           0.0000                   WEL =           0.0000     WEL_0           
                 DRN =           0.0000                   DRN =           0.0000     DRN_0           
                 RCH = 15902065378.7673                   RCH =    13485497.1085     RCH_0           

            TOTAL IN = 20241456568.5740              TOTAL IN =    35024023.1058

          OUT:                                     OUT:
          ----                                     ----
              STO-SS =           0.0000                STO-SS =           0.0000     STORAGE         
              STO-SY =  3872710637.5710                STO-SY =     1161754.7381     STORAGE         
                 WEL =  1303956409.0868                   WEL =     1446561.8648     WEL_0           
                 DRN = 15064784736.6083                   DRN =    32415702.8565     DRN_0           
                 RCH =           0.0000                   RCH =           0.0000     RCH_0           

           TOTAL OUT = 20241451783.2661             TOTAL OUT =    35024019.4594

            IN - OUT =        4785.3079              IN - OUT =           3.6464

 PERCENT DISCREPANCY =           0.00     PERCENT DISCREPANCY =           0.00




         TIME SUMMARY AT END OF TIME STEP    1 IN STRESS PERIOD  202
                          TIME STEP LENGTH =    1.00000    
                        STRESS PERIOD TIME =    1.00000    
                     TOTAL SIMULATION TIME =    202.000    

end timestep


start timestep kper="203" kstp="1" mode="normal"


 OUTPUT CONTROL FOR STRESS PERIOD 203 IS REPEATED USING SETTINGS FROM A PREVIOUS STRESS PERIOD.


 STRESS PERIOD 203 IS TRANSIENT


 REUSING WELS FROM LAST STRESS PERIOD

 REUSING DRNS FROM LAST STRESS PERIOD

 REUSING RCHS FROM LAST STRESS PERIOD


  VOLUME BUDGET FOR ENTIRE MODEL AT END OF TIME STEP    1, STRESS PERIOD 203
  ---------------------------------------------------------------------------------------------------

     CUMULATIVE VOLUME      L**3       RATES FOR THIS TIME STEP      L**3/T          PACKAGE NAME    
     ------------------                 ------------------------                     ----------------

           IN:                                      IN:
           ---                                      ---
              STO-SS =           0.0000                STO-SS =           0.0000     STORAGE         
              STO-SY =  4361056759.3354                STO-SY =    21665569.5287     STORAGE         
                 WEL =           0.0000                   WEL =           0.0000     WEL_0           
                 DRN =           0.0000                   DRN =           0.0000     DRN_0           
                 RCH = 15913481338.3090                   RCH =    11415959.5417     RCH_0           

            TOTAL IN = 20274538097.6444              TOTAL IN =    33081529.0704

          OUT:                                     OUT:
          ----                                     ----
              STO-SS =           0.0000                STO-SS =           0.0000     STORAGE         
              STO-SY =  3873742121.7532                STO-SY =     1031484.1822     STORAGE         
                 WEL =  1305661960.7279                   WEL =     1705551.6411     WEL_0           
                 DRN = 15095129200.0766                   DRN =    30344463.4683     DRN_0           
                 RCH =           0.0000                   RCH =           0.0000     RCH_0           

           TOTAL OUT = 20274533282.5576             TOTAL OUT =    33081499.2915

            IN - OUT =        4815.0867              IN - OUT =          29.7789

 PERCENT DISCREPANCY =           0.00     PERCENT DISCREPANCY =           0.00




         TIME SUMMARY AT END OF TIME STEP    1 IN STRESS PERIOD  203
                          TIME STEP LENGTH =    1.00000    
                        STRESS PERIOD TIME =    1.00000    
                     TOTAL SIMULATION TIME =    203.000    

end timestep


start timestep kper="204" kstp="1" mode="normal"


 OUTPUT CONTROL FOR STRESS PERIOD 204 IS REPEATED USING SETTINGS FROM A PREVIOUS STRESS PERIOD.


 STRESS PERIOD 204 IS TRANSIENT


 REUSING WELS FROM LAST STRESS PERIOD

 REUSING DRNS FROM LAST STRESS PERIOD

 REUSING RCHS FROM LAST STRESS PERIOD


  VOLUME BUDGET FOR ENTIRE MODEL AT END OF TIME STEP    1, STRESS PERIOD 204
  ---------------------------------------------------------------------------------------------------

     CUMULATIVE VOLUME      L**3       RATES FOR THIS TIME STEP      L**3/T          PACKAGE NAME    
     ------------------                 ------------------------                     ----------------

           IN:                                      IN:
           ---                                      ---
              STO-SS =           0.0000                STO-SS =           0.0000     STORAGE         
              STO-SY =  4384725435.7833                STO-SY =    23668676.4479     STORAGE         
                 WEL =           0.0000                   WEL =           0.0000     WEL_0           
                 DRN =           0.0000                   DRN =           0.0000     DRN_0           
                 RCH = 15927629302.8572                   RCH =    14147964.5482     RCH_0           

            TOTAL IN = 20312354738.6404              TOTAL IN =    37816640.9961

          OUT:                                     OUT:
          ----                                     ----
              STO-SS =           0.0000                STO-SS =           0.0000     STORAGE         
              STO-SY =  3875052836.7089                STO-SY =     1310714.9558     STORAGE         
                 WEL =  1310545018.5600                   WEL =     4883057.8321     WEL_0           
                 DRN = 15126752104.1719                   DRN =    31622904.0953     DRN_0           
                 RCH =           0.0000                   RCH =           0.0000     RCH_0           

           TOTAL OUT = 20312349959.4408             TOTAL OUT =    37816676.8832

            IN - OUT =        4779.1996              IN - OUT =         -35.8871

 PERCENT DISCREPANCY =           0.00     PERCENT DISCREPANCY =          -0.00




         TIME SUMMARY AT END OF TIME STEP    1 IN STRESS PERIOD  204
                          TIME STEP LENGTH =    1.00000    
                        STRESS PERIOD TIME =    1.00000    
                     TOTAL SIMULATION TIME =    204.000    

end timestep


start timestep kper="205" kstp="1" mode="normal"


 OUTPUT CONTROL FOR STRESS PERIOD 205 IS REPEATED USING SETTINGS FROM A PREVIOUS STRESS PERIOD.


 STRESS PERIOD 205 IS TRANSIENT


 REUSING WELS FROM LAST STRESS PERIOD

 REUSING DRNS FROM LAST STRESS PERIOD

 REUSING RCHS FROM LAST STRESS PERIOD


  VOLUME BUDGET FOR ENTIRE MODEL AT END OF TIME STEP    1, STRESS PERIOD 205
  ---------------------------------------------------------------------------------------------------

     CUMULATIVE VOLUME      L**3       RATES FOR THIS TIME STEP      L**3/T          PACKAGE NAME    
     ------------------                 ------------------------                     ----------------

           IN:                                      IN:
           ---                                      ---
              STO-SS =           0.0000                STO-SS =           0.0000     STORAGE         
              STO-SY =  4410188093.9075                STO-SY =    25462658.1242     STORAGE         
                 WEL =           0.0000                   WEL =           0.0000     WEL_0           
                 DRN =           0.0000                   DRN =           0.0000     DRN_0           
                 RCH = 15940847703.6839                   RCH =    13218400.8267     RCH_0           

            TOTAL IN = 20351035797.5913              TOTAL IN =    38681058.9509

          OUT:                                     OUT:
          ----                                     ----
              STO-SS =           0.0000                STO-SS =           0.0000     STORAGE         
              STO-SY =  3876628202.3375                STO-SY =     1575365.6286     STORAGE         
                 WEL =  1318145533.7196                   WEL =     7600515.1596     WEL_0           
                 DRN = 15156257282.1582                   DRN =    29505177.9863     DRN_0           
                 RCH =           0.0000                   RCH =           0.0000     RCH_0           

           TOTAL OUT = 20351031018.2153             TOTAL OUT =    38681058.7745

            IN - OUT =        4779.3760              IN - OUT =           0.1764

 PERCENT DISCREPANCY =           0.00     PERCENT DISCREPANCY =           0.00




         TIME SUMMARY AT END OF TIME STEP    1 IN STRESS PERIOD  205
                          TIME STEP LENGTH =    1.00000    
                        STRESS PERIOD TIME =    1.00000    
                     TOTAL SIMULATION TIME =    205.000    

end timestep


start timestep kper="206" kstp="1" mode="normal"


 OUTPUT CONTROL FOR STRESS PERIOD 206 IS REPEATED USING SETTINGS FROM A PREVIOUS STRESS PERIOD.


 STRESS PERIOD 206 IS TRANSIENT


 REUSING WELS FROM LAST STRESS PERIOD

 REUSING DRNS FROM LAST STRESS PERIOD

 REUSING RCHS FROM LAST STRESS PERIOD


  VOLUME BUDGET FOR ENTIRE MODEL AT END OF TIME STEP    1, STRESS PERIOD 206
  ---------------------------------------------------------------------------------------------------

     CUMULATIVE VOLUME      L**3       RATES FOR THIS TIME STEP      L**3/T          PACKAGE NAME    
     ------------------                 ------------------------                     ----------------

           IN:                                      IN:
           ---                                      ---
              STO-SS =           0.0000                STO-SS =           0.0000     STORAGE         
              STO-SY =  4431255010.5162                STO-SY =    21066916.6087     STORAGE         
                 WEL =           0.0000                   WEL =           0.0000     WEL_0           
                 DRN =           0.0000                   DRN =           0.0000     DRN_0           
                 RCH = 15953198484.4986                   RCH =    12350780.8147     RCH_0           

            TOTAL IN = 20384453495.0148              TOTAL IN =    33417697.4234

          OUT:                                     OUT:
          ----                                     ----
              STO-SS =           0.0000                STO-SS =           0.0000     STORAGE         
              STO-SY =  3877758298.8412                STO-SY =     1130096.5037     STORAGE         
                 WEL =  1319544040.6850                   WEL =     1398506.9655     WEL_0           
                 DRN = 15187146337.8969                   DRN =    30889055.7387     DRN_0           
                 RCH =           0.0000                   RCH =           0.0000     RCH_0           

           TOTAL OUT = 20384448677.4231             TOTAL OUT =    33417659.2078

            IN - OUT =        4817.5917              IN - OUT =          38.2156

 PERCENT DISCREPANCY =           0.00     PERCENT DISCREPANCY =           0.00




         TIME SUMMARY AT END OF TIME STEP    1 IN STRESS PERIOD  206
                          TIME STEP LENGTH =    1.00000    
                        STRESS PERIOD TIME =    1.00000    
                     TOTAL SIMULATION TIME =    206.000    

end timestep


start timestep kper="207" kstp="1" mode="normal"


 OUTPUT CONTROL FOR STRESS PERIOD 207 IS REPEATED USING SETTINGS FROM A PREVIOUS STRESS PERIOD.


 STRESS PERIOD 207 IS TRANSIENT


 REUSING WELS FROM LAST STRESS PERIOD

 REUSING DRNS FROM LAST STRESS PERIOD

 REUSING RCHS FROM LAST STRESS PERIOD


  VOLUME BUDGET FOR ENTIRE MODEL AT END OF TIME STEP    1, STRESS PERIOD 207
  ---------------------------------------------------------------------------------------------------

     CUMULATIVE VOLUME      L**3       RATES FOR THIS TIME STEP      L**3/T          PACKAGE NAME    
     ------------------                 ------------------------                     ----------------

           IN:                                      IN:
           ---                                      ---
              STO-SS =           0.0000                STO-SS =           0.0000     STORAGE         
              STO-SY =  4452598340.4099                STO-SY =    21343329.8937     STORAGE         
                 WEL =           0.0000                   WEL =           0.0000     WEL_0           
                 DRN =           0.0000                   DRN =           0.0000     DRN_0           
                 RCH = 15963741459.8744                   RCH =    10542975.3758     RCH_0           

            TOTAL IN = 20416339800.2842              TOTAL IN =    31886305.2695

          OUT:                                     OUT:
          ----                                     ----
              STO-SS =           0.0000                STO-SS =           0.0000     STORAGE         
              STO-SY =  3878810200.6160                STO-SY =     1051901.7748     STORAGE         
                 WEL =  1321420629.3846                   WEL =     1876588.6996     WEL_0           
                 DRN = 15216104153.4931                   DRN =    28957815.5962     DRN_0           
                 RCH =           0.0000                   RCH =           0.0000     RCH_0           

           TOTAL OUT = 20416334983.4937             TOTAL OUT =    31886306.0706

            IN - OUT =        4816.7906              IN - OUT =          -0.8011

 PERCENT DISCREPANCY =           0.00     PERCENT DISCREPANCY =          -0.00




         TIME SUMMARY AT END OF TIME STEP    1 IN STRESS PERIOD  207
                          TIME STEP LENGTH =    1.00000    
                        STRESS PERIOD TIME =    1.00000    
                     TOTAL SIMULATION TIME =    207.000    

end timestep


start timestep kper="208" kstp="1" mode="normal"


 OUTPUT CONTROL FOR STRESS PERIOD 208 IS REPEATED USING SETTINGS FROM A PREVIOUS STRESS PERIOD.


 STRESS PERIOD 208 IS TRANSIENT


 REUSING WELS FROM LAST STRESS PERIOD

 REUSING DRNS FROM LAST STRESS PERIOD

 REUSING RCHS FROM LAST STRESS PERIOD


  VOLUME BUDGET FOR ENTIRE MODEL AT END OF TIME STEP    1, STRESS PERIOD 208
  ---------------------------------------------------------------------------------------------------

     CUMULATIVE VOLUME      L**3       RATES FOR THIS TIME STEP      L**3/T          PACKAGE NAME    
     ------------------                 ------------------------                     ----------------

           IN:                                      IN:
           ---                                      ---
              STO-SS =           0.0000                STO-SS =           0.0000     STORAGE         
              STO-SY =  4473575708.0096                STO-SY =    20977367.5997     STORAGE         
                 WEL =           0.0000                   WEL =           0.0000     WEL_0           
                 DRN =           0.0000                   DRN =           0.0000     DRN_0           
                 RCH = 15975526596.2214                   RCH =    11785136.3470     RCH_0           

            TOTAL IN = 20449102304.2309              TOTAL IN =    32762503.9467

          OUT:                                     OUT:
          ----                                     ----
              STO-SS =           0.0000                STO-SS =           0.0000     STORAGE         
              STO-SY =  3879775593.0739                STO-SY =      965392.4579     STORAGE         
                 WEL =  1322999635.1078                   WEL =     1579005.7232     WEL_0           
                 DRN = 15246322245.3633                   DRN =    30218091.8702     DRN_0           
                 RCH =           0.0000                   RCH =           0.0000     RCH_0           

           TOTAL OUT = 20449097473.5450             TOTAL OUT =    32762490.0513

            IN - OUT =        4830.6859              IN - OUT =          13.8954

 PERCENT DISCREPANCY =           0.00     PERCENT DISCREPANCY =           0.00




         TIME SUMMARY AT END OF TIME STEP    1 IN STRESS PERIOD  208
                          TIME STEP LENGTH =    1.00000    
                        STRESS PERIOD TIME =    1.00000    
                     TOTAL SIMULATION TIME =    208.000    

end timestep


start timestep kper="209" kstp="1" mode="normal"


 OUTPUT CONTROL FOR STRESS PERIOD 209 IS REPEATED USING SETTINGS FROM A PREVIOUS STRESS PERIOD.


 STRESS PERIOD 209 IS TRANSIENT


 REUSING WELS FROM LAST STRESS PERIOD

 REUSING DRNS FROM LAST STRESS PERIOD

 REUSING RCHS FROM LAST STRESS PERIOD


  VOLUME BUDGET FOR ENTIRE MODEL AT END OF TIME STEP    1, STRESS PERIOD 209
  ---------------------------------------------------------------------------------------------------

     CUMULATIVE VOLUME      L**3       RATES FOR THIS TIME STEP      L**3/T          PACKAGE NAME    
     ------------------                 ------------------------                     ----------------

           IN:                                      IN:
           ---                                      ---
              STO-SS =           0.0000                STO-SS =           0.0000     STORAGE         
              STO-SY =  4494411177.0845                STO-SY =    20835469.0749     STORAGE         
                 WEL =           0.0000                   WEL =           0.0000     WEL_0           
                 DRN =           0.0000                   DRN =           0.0000     DRN_0           
                 RCH = 15985431058.4867                   RCH =     9904462.2653     RCH_0           

            TOTAL IN = 20479842235.5711              TOTAL IN =    30739931.3402

          OUT:                                     OUT:
          ----                                     ----
              STO-SS =           0.0000                STO-SS =           0.0000     STORAGE         
              STO-SY =  3880627995.9154                STO-SY =      852402.8414     STORAGE         
                 WEL =  1324431148.2325                   WEL =     1431513.1246     WEL_0           
                 DRN = 15274778249.5982                   DRN =    28456004.2349     DRN_0           
                 RCH =           0.0000                   RCH =           0.0000     RCH_0           

           TOTAL OUT = 20479837393.7460             TOTAL OUT =    30739920.2010

            IN - OUT =        4841.8251              IN - OUT =          11.1392

 PERCENT DISCREPANCY =           0.00     PERCENT DISCREPANCY =           0.00




         TIME SUMMARY AT END OF TIME STEP    1 IN STRESS PERIOD  209
                          TIME STEP LENGTH =    1.00000    
                        STRESS PERIOD TIME =    1.00000    
                     TOTAL SIMULATION TIME =    209.000    

end timestep


start timestep kper="210" kstp="1" mode="normal"


 OUTPUT CONTROL FOR STRESS PERIOD 210 IS REPEATED USING SETTINGS FROM A PREVIOUS STRESS PERIOD.


 STRESS PERIOD 210 IS TRANSIENT


 REUSING WELS FROM LAST STRESS PERIOD

 REUSING DRNS FROM LAST STRESS PERIOD

 REUSING RCHS FROM LAST STRESS PERIOD


  VOLUME BUDGET FOR ENTIRE MODEL AT END OF TIME STEP    1, STRESS PERIOD 210
  ---------------------------------------------------------------------------------------------------

     CUMULATIVE VOLUME      L**3       RATES FOR THIS TIME STEP      L**3/T          PACKAGE NAME    
     ------------------                 ------------------------                     ----------------

           IN:                                      IN:
           ---                                      ---
              STO-SS =           0.0000                STO-SS =           0.0000     STORAGE         
              STO-SY =  4515042240.0713                STO-SY =    20631062.9868     STORAGE         
                 WEL =           0.0000                   WEL =           0.0000     WEL_0           
                 DRN =           0.0000                   DRN =           0.0000     DRN_0           
                 RCH = 15996837230.0178                   RCH =    11406171.5312     RCH_0           

            TOTAL IN = 20511879470.0891              TOTAL IN =    32037234.5180

          OUT:                                     OUT:
          ----                                     ----
              STO-SS =           0.0000                STO-SS =           0.0000     STORAGE         
              STO-SY =  3881546656.8098                STO-SY =      918660.8944     STORAGE         
                 WEL =  1325869763.0093                   WEL =     1438614.7768     WEL_0           
                 DRN = 15304458184.3158                   DRN =    29679934.7176     DRN_0           
                 RCH =           0.0000                   RCH =           0.0000     RCH_0           

           TOTAL OUT = 20511874604.1348             TOTAL OUT =    32037210.3888

            IN - OUT =        4865.9543              IN - OUT =          24.1292

 PERCENT DISCREPANCY =           0.00     PERCENT DISCREPANCY =           0.00




         TIME SUMMARY AT END OF TIME STEP    1 IN STRESS PERIOD  210
                          TIME STEP LENGTH =    1.00000    
                        STRESS PERIOD TIME =    1.00000    
                     TOTAL SIMULATION TIME =    210.000    

end timestep


start timestep kper="211" kstp="1" mode="normal"


 OUTPUT CONTROL FOR STRESS PERIOD 211 IS REPEATED USING SETTINGS FROM A PREVIOUS STRESS PERIOD.


 STRESS PERIOD 211 IS TRANSIENT


 REUSING WELS FROM LAST STRESS PERIOD

 REUSING DRNS FROM LAST STRESS PERIOD

 REUSING RCHS FROM LAST STRESS PERIOD


  VOLUME BUDGET FOR ENTIRE MODEL AT END OF TIME STEP    1, STRESS PERIOD 211
  ---------------------------------------------------------------------------------------------------

     CUMULATIVE VOLUME      L**3       RATES FOR THIS TIME STEP      L**3/T          PACKAGE NAME    
     ------------------                 ------------------------                     ----------------

           IN:                                      IN:
           ---                                      ---
              STO-SS =           0.0000                STO-SS =           0.0000     STORAGE         
              STO-SY =  4536361167.8886                STO-SY =    21318927.8174     STORAGE         
                 WEL =           0.0000                   WEL =           0.0000     WEL_0           
                 DRN =           0.0000                   DRN =           0.0000     DRN_0           
                 RCH = 16006605451.8097                   RCH =     9768221.7919     RCH_0           

            TOTAL IN = 20542966619.6984              TOTAL IN =    31087149.6092

          OUT:                                     OUT:
          ----                                     ----
              STO-SS =           0.0000                STO-SS =           0.0000     STORAGE         
              STO-SY =  3882439207.6049                STO-SY =      892550.7951     STORAGE         
                 WEL =  1328290853.8594                   WEL =     2421090.8502     WEL_0           
                 DRN = 15332231692.3824                   DRN =    27773508.0666     DRN_0           
                 RCH =           0.0000                   RCH =           0.0000     RCH_0           

           TOTAL OUT = 20542961753.8467             TOTAL OUT =    31087149.7119

            IN - OUT =        4865.8517              IN - OUT =          -0.1027

 PERCENT DISCREPANCY =           0.00     PERCENT DISCREPANCY =          -0.00




         TIME SUMMARY AT END OF TIME STEP    1 IN STRESS PERIOD  211
                          TIME STEP LENGTH =    1.00000    
                        STRESS PERIOD TIME =    1.00000    
                     TOTAL SIMULATION TIME =    211.000    

end timestep


start timestep kper="212" kstp="1" mode="normal"


 OUTPUT CONTROL FOR STRESS PERIOD 212 IS REPEATED USING SETTINGS FROM A PREVIOUS STRESS PERIOD.


 STRESS PERIOD 212 IS TRANSIENT


 REUSING WELS FROM LAST STRESS PERIOD

 REUSING DRNS FROM LAST STRESS PERIOD

 REUSING RCHS FROM LAST STRESS PERIOD


  VOLUME BUDGET FOR ENTIRE MODEL AT END OF TIME STEP    1, STRESS PERIOD 212
  ---------------------------------------------------------------------------------------------------

     CUMULATIVE VOLUME      L**3       RATES FOR THIS TIME STEP      L**3/T          PACKAGE NAME    
     ------------------                 ------------------------                     ----------------

           IN:                                      IN:
           ---                                      ---
              STO-SS =           0.0000                STO-SS =           0.0000     STORAGE         
              STO-SY =  4577352831.2849                STO-SY =    40991663.3963     STORAGE         
                 WEL =           0.0000                   WEL =           0.0000     WEL_0           
                 DRN =           0.0000                   DRN =           0.0000     DRN_0           
                 RCH = 16031475842.9533                   RCH =    24870391.1435     RCH_0           

            TOTAL IN = 20608828674.2382              TOTAL IN =    65862054.5398

          OUT:                                     OUT:
          ----                                     ----
              STO-SS =           0.0000                STO-SS =           0.0000     STORAGE         
              STO-SY =  3888574008.5517                STO-SY =     6134800.9468     STORAGE         
                 WEL =  1358426278.6992                   WEL =    30135424.8398     WEL_0           
                 DRN = 15361823519.0937                   DRN =    29591826.7113     DRN_0           
                 RCH =           0.0000                   RCH =           0.0000     RCH_0           

           TOTAL OUT = 20608823806.3446             TOTAL OUT =    65862052.4979

            IN - OUT =        4867.8936              IN - OUT =           2.0419

 PERCENT DISCREPANCY =           0.00     PERCENT DISCREPANCY =           0.00




         TIME SUMMARY AT END OF TIME STEP    1 IN STRESS PERIOD  212
                          TIME STEP LENGTH =    1.00000    
                        STRESS PERIOD TIME =    1.00000    
                     TOTAL SIMULATION TIME =    212.000    

end timestep


start timestep kper="213" kstp="1" mode="normal"


 OUTPUT CONTROL FOR STRESS PERIOD 213 IS REPEATED USING SETTINGS FROM A PREVIOUS STRESS PERIOD.


 STRESS PERIOD 213 IS TRANSIENT


 REUSING WELS FROM LAST STRESS PERIOD

 REUSING DRNS FROM LAST STRESS PERIOD

 REUSING RCHS FROM LAST STRESS PERIOD


  VOLUME BUDGET FOR ENTIRE MODEL AT END OF TIME STEP    1, STRESS PERIOD 213
  ---------------------------------------------------------------------------------------------------

     CUMULATIVE VOLUME      L**3       RATES FOR THIS TIME STEP      L**3/T          PACKAGE NAME    
     ------------------                 ------------------------                     ----------------

           IN:                                      IN:
           ---                                      ---
              STO-SS =           0.0000                STO-SS =           0.0000     STORAGE         
              STO-SY =  4604093704.0813                STO-SY =    26740872.7964     STORAGE         
                 WEL =           0.0000                   WEL =           0.0000     WEL_0           
                 DRN =           0.0000                   DRN =           0.0000     DRN_0           
                 RCH = 16043658638.3598                   RCH =    12182795.4065     RCH_0           

            TOTAL IN = 20647752342.4411              TOTAL IN =    38923668.2029

          OUT:                                     OUT:
          ----                                     ----
              STO-SS =           0.0000                STO-SS =           0.0000     STORAGE         
              STO-SY =  3890360477.0985                STO-SY =     1786468.5468     STORAGE         
                 WEL =  1368757713.9128                   WEL =    10331435.2136     WEL_0           
                 DRN = 15388629286.1094                   DRN =    26805767.0158     DRN_0           
                 RCH =           0.0000                   RCH =           0.0000     RCH_0           

           TOTAL OUT = 20647747477.1208             TOTAL OUT =    38923670.7761

            IN - OUT =        4865.3204              IN - OUT =          -2.5732

 PERCENT DISCREPANCY =           0.00     PERCENT DISCREPANCY =          -0.00




         TIME SUMMARY AT END OF TIME STEP    1 IN STRESS PERIOD  213
                          TIME STEP LENGTH =    1.00000    
                        STRESS PERIOD TIME =    1.00000    
                     TOTAL SIMULATION TIME =    213.000    

end timestep


start timestep kper="214" kstp="1" mode="normal"


 OUTPUT CONTROL FOR STRESS PERIOD 214 IS REPEATED USING SETTINGS FROM A PREVIOUS STRESS PERIOD.


 STRESS PERIOD 214 IS TRANSIENT


 REUSING WELS FROM LAST STRESS PERIOD

 REUSING DRNS FROM LAST STRESS PERIOD

 REUSING RCHS FROM LAST STRESS PERIOD


  VOLUME BUDGET FOR ENTIRE MODEL AT END OF TIME STEP    1, STRESS PERIOD 214
  ---------------------------------------------------------------------------------------------------

     CUMULATIVE VOLUME      L**3       RATES FOR THIS TIME STEP      L**3/T          PACKAGE NAME    
     ------------------                 ------------------------                     ----------------

           IN:                                      IN:
           ---                                      ---
              STO-SS =           0.0000                STO-SS =           0.0000     STORAGE         
              STO-SY =  4642006618.3461                STO-SY =    37912914.2648     STORAGE         
                 WEL =           0.0000                   WEL =           0.0000     WEL_0           
                 DRN =           0.0000                   DRN =           0.0000     DRN_0           
                 RCH = 16066679757.8253                   RCH =    23021119.4655     RCH_0           

            TOTAL IN = 20708686376.1714              TOTAL IN =    60934033.7303

          OUT:                                     OUT:
          ----                                     ----
              STO-SS =           0.0000                STO-SS =           0.0000     STORAGE         
              STO-SY =  3895435516.0650                STO-SY =     5075038.9665     STORAGE         
                 WEL =  1396049587.9035                   WEL =    27291873.9906     WEL_0           
                 DRN = 15417196410.0049                   DRN =    28567123.8954     DRN_0           
                 RCH =           0.0000                   RCH =           0.0000     RCH_0           

           TOTAL OUT = 20708681513.9734             TOTAL OUT =    60934036.8526

            IN - OUT =        4862.1980              IN - OUT =          -3.1223

 PERCENT DISCREPANCY =           0.00     PERCENT DISCREPANCY =          -0.00




         TIME SUMMARY AT END OF TIME STEP    1 IN STRESS PERIOD  214
                          TIME STEP LENGTH =    1.00000    
                        STRESS PERIOD TIME =    1.00000    
                     TOTAL SIMULATION TIME =    214.000    

end timestep


start timestep kper="215" kstp="1" mode="normal"


 OUTPUT CONTROL FOR STRESS PERIOD 215 IS REPEATED USING SETTINGS FROM A PREVIOUS STRESS PERIOD.


 STRESS PERIOD 215 IS TRANSIENT


 REUSING WELS FROM LAST STRESS PERIOD

 REUSING DRNS FROM LAST STRESS PERIOD

 REUSING RCHS FROM LAST STRESS PERIOD


  VOLUME BUDGET FOR ENTIRE MODEL AT END OF TIME STEP    1, STRESS PERIOD 215
  ---------------------------------------------------------------------------------------------------

     CUMULATIVE VOLUME      L**3       RATES FOR THIS TIME STEP      L**3/T          PACKAGE NAME    
     ------------------                 ------------------------                     ----------------

           IN:                                      IN:
           ---                                      ---
              STO-SS =           0.0000                STO-SS =           0.0000     STORAGE         
              STO-SY =  4684283271.2295                STO-SY =    42276652.8834     STORAGE         
                 WEL =           0.0000                   WEL =           0.0000     WEL_0           
                 DRN =           0.0000                   DRN =           0.0000     DRN_0           
                 RCH = 16092260739.3164                   RCH =    25580981.4912     RCH_0           

            TOTAL IN = 20776544010.5459              TOTAL IN =    67857634.3746

          OUT:                                     OUT:
          ----                                     ----
              STO-SS =           0.0000                STO-SS =           0.0000     STORAGE         
              STO-SY =  3902114028.3482                STO-SY =     6678512.2832     STORAGE         
                 WEL =  1430647747.6718                   WEL =    34598159.7684     WEL_0           
                 DRN = 15443777373.2289                   DRN =    26580963.2240     DRN_0           
                 RCH =           0.0000                   RCH =           0.0000     RCH_0           

           TOTAL OUT = 20776539149.2489             TOTAL OUT =    67857635.2755

            IN - OUT =        4861.2970              IN - OUT =          -0.9010

 PERCENT DISCREPANCY =           0.00     PERCENT DISCREPANCY =          -0.00




         TIME SUMMARY AT END OF TIME STEP    1 IN STRESS PERIOD  215
                          TIME STEP LENGTH =    1.00000    
                        STRESS PERIOD TIME =    1.00000    
                     TOTAL SIMULATION TIME =    215.000    

end timestep


start timestep kper="216" kstp="1" mode="normal"


 OUTPUT CONTROL FOR STRESS PERIOD 216 IS REPEATED USING SETTINGS FROM A PREVIOUS STRESS PERIOD.


 STRESS PERIOD 216 IS TRANSIENT


 REUSING WELS FROM LAST STRESS PERIOD

 REUSING DRNS FROM LAST STRESS PERIOD

 REUSING RCHS FROM LAST STRESS PERIOD


  VOLUME BUDGET FOR ENTIRE MODEL AT END OF TIME STEP    1, STRESS PERIOD 216
  ---------------------------------------------------------------------------------------------------

     CUMULATIVE VOLUME      L**3       RATES FOR THIS TIME STEP      L**3/T          PACKAGE NAME    
     ------------------                 ------------------------                     ----------------

           IN:                                      IN:
           ---                                      ---
              STO-SS =           0.0000                STO-SS =           0.0000     STORAGE         
              STO-SY =  4707654374.7819                STO-SY =    23371103.5524     STORAGE         
                 WEL =           0.0000                   WEL =           0.0000     WEL_0           
                 DRN =           0.0000                   DRN =           0.0000     DRN_0           
                 RCH = 16103646518.9147                   RCH =    11385779.5983     RCH_0           

            TOTAL IN = 20811300893.6966              TOTAL IN =    34756883.1507

          OUT:                                     OUT:
          ----                                     ----
              STO-SS =           0.0000                STO-SS =           0.0000     STORAGE         
              STO-SY =  3904116440.3162                STO-SY =     2002411.9681     STORAGE         
                 WEL =  1436466832.5919                   WEL =     5819084.9200     WEL_0           
                 DRN = 15470712732.4268                   DRN =    26935359.1979     DRN_0           
                 RCH =           0.0000                   RCH =           0.0000     RCH_0           

           TOTAL OUT = 20811296005.3349             TOTAL OUT =    34756856.0860

            IN - OUT =        4888.3617              IN - OUT =          27.0647

 PERCENT DISCREPANCY =           0.00     PERCENT DISCREPANCY =           0.00




         TIME SUMMARY AT END OF TIME STEP    1 IN STRESS PERIOD  216
                          TIME STEP LENGTH =    1.00000    
                        STRESS PERIOD TIME =    1.00000    
                     TOTAL SIMULATION TIME =    216.000    

end timestep


start timestep kper="217" kstp="1" mode="normal"


 OUTPUT CONTROL FOR STRESS PERIOD 217 IS REPEATED USING SETTINGS FROM A PREVIOUS STRESS PERIOD.


 STRESS PERIOD 217 IS TRANSIENT


 REUSING WELS FROM LAST STRESS PERIOD

 REUSING DRNS FROM LAST STRESS PERIOD

 REUSING RCHS FROM LAST STRESS PERIOD


  VOLUME BUDGET FOR ENTIRE MODEL AT END OF TIME STEP    1, STRESS PERIOD 217
  ---------------------------------------------------------------------------------------------------

     CUMULATIVE VOLUME      L**3       RATES FOR THIS TIME STEP      L**3/T          PACKAGE NAME    
     ------------------                 ------------------------                     ----------------

           IN:                                      IN:
           ---                                      ---
              STO-SS =           0.0000                STO-SS =           0.0000     STORAGE         
              STO-SY =  4730691121.2204                STO-SY =    23036746.4385     STORAGE         
                 WEL =           0.0000                   WEL =           0.0000     WEL_0           
                 DRN =           0.0000                   DRN =           0.0000     DRN_0           
                 RCH = 16113388547.7462                   RCH =     9742028.8315     RCH_0           

            TOTAL IN = 20844079668.9666              TOTAL IN =    32778775.2700

          OUT:                                     OUT:
          ----                                     ----
              STO-SS =           0.0000                STO-SS =           0.0000     STORAGE         
              STO-SY =  3905829543.1712                STO-SY =     1713102.8550     STORAGE         
                 WEL =  1442316110.9526                   WEL =     5849278.3607     WEL_0           
                 DRN = 15495929089.5175                   DRN =    25216357.0908     DRN_0           
                 RCH =           0.0000                   RCH =           0.0000     RCH_0           

           TOTAL OUT = 20844074743.6414             TOTAL OUT =    32778738.3065

            IN - OUT =        4925.3252              IN - OUT =          36.9635

 PERCENT DISCREPANCY =           0.00     PERCENT DISCREPANCY =           0.00




         TIME SUMMARY AT END OF TIME STEP    1 IN STRESS PERIOD  217
                          TIME STEP LENGTH =    1.00000    
                        STRESS PERIOD TIME =    1.00000    
                     TOTAL SIMULATION TIME =    217.000    

end timestep


start timestep kper="218" kstp="1" mode="normal"


 OUTPUT CONTROL FOR STRESS PERIOD 218 IS REPEATED USING SETTINGS FROM A PREVIOUS STRESS PERIOD.


 STRESS PERIOD 218 IS TRANSIENT


 REUSING WELS FROM LAST STRESS PERIOD

 REUSING DRNS FROM LAST STRESS PERIOD

 REUSING RCHS FROM LAST STRESS PERIOD


  VOLUME BUDGET FOR ENTIRE MODEL AT END OF TIME STEP    1, STRESS PERIOD 218
  ---------------------------------------------------------------------------------------------------

     CUMULATIVE VOLUME      L**3       RATES FOR THIS TIME STEP      L**3/T          PACKAGE NAME    
     ------------------                 ------------------------                     ----------------

           IN:                                      IN:
           ---                                      ---
              STO-SS =           0.0000                STO-SS =           0.0000     STORAGE         
              STO-SY =  4751600064.8329                STO-SY =    20908943.6125     STORAGE         
                 WEL =           0.0000                   WEL =           0.0000     WEL_0           
                 DRN =           0.0000                   DRN =           0.0000     DRN_0           
                 RCH = 16123073041.1651                   RCH =     9684493.4188     RCH_0           

            TOTAL IN = 20874673105.9980              TOTAL IN =    30593437.0314

          OUT:                                     OUT:
          ----                                     ----
              STO-SS =           0.0000                STO-SS =           0.0000     STORAGE         
              STO-SY =  3907315032.2707                STO-SY =     1485489.0995     STORAGE         
                 WEL =  1444869395.6998                   WEL =     2553284.7472     WEL_0           
                 DRN = 15522483751.6771                   DRN =    26554662.1596     DRN_0           
                 RCH =           0.0000                   RCH =           0.0000     RCH_0           

           TOTAL OUT = 20874668179.6477             TOTAL OUT =    30593436.0063

            IN - OUT =        4926.3503              IN - OUT =           1.0250

 PERCENT DISCREPANCY =           0.00     PERCENT DISCREPANCY =           0.00




         TIME SUMMARY AT END OF TIME STEP    1 IN STRESS PERIOD  218
                          TIME STEP LENGTH =    1.00000    
                        STRESS PERIOD TIME =    1.00000    
                     TOTAL SIMULATION TIME =    218.000    

end timestep


start timestep kper="219" kstp="1" mode="normal"


 OUTPUT CONTROL FOR STRESS PERIOD 219 IS REPEATED USING SETTINGS FROM A PREVIOUS STRESS PERIOD.


 STRESS PERIOD 219 IS TRANSIENT


 REUSING WELS FROM LAST STRESS PERIOD

 REUSING DRNS FROM LAST STRESS PERIOD

 REUSING RCHS FROM LAST STRESS PERIOD


  VOLUME BUDGET FOR ENTIRE MODEL AT END OF TIME STEP    1, STRESS PERIOD 219
  ---------------------------------------------------------------------------------------------------

     CUMULATIVE VOLUME      L**3       RATES FOR THIS TIME STEP      L**3/T          PACKAGE NAME    
     ------------------                 ------------------------                     ----------------

           IN:                                      IN:
           ---                                      ---
              STO-SS =           0.0000                STO-SS =           0.0000     STORAGE         
              STO-SY =  4777277189.7482                STO-SY =    25677124.9153     STORAGE         
                 WEL =           0.0000                   WEL =           0.0000     WEL_0           
                 DRN =           0.0000                   DRN =           0.0000     DRN_0           
                 RCH = 16133793498.4958                   RCH =    10720457.3307     RCH_0           

            TOTAL IN = 20911070688.2440              TOTAL IN =    36397582.2461

          OUT:                                     OUT:
          ----                                     ----
              STO-SS =           0.0000                STO-SS =           0.0000     STORAGE         
              STO-SY =  3908873841.3209                STO-SY =     1558809.0502     STORAGE         
                 WEL =  1455020916.8049                   WEL =    10151521.1051     WEL_0           
                 DRN = 15547171003.6246                   DRN =    24687251.9475     DRN_0           
                 RCH =           0.0000                   RCH =           0.0000     RCH_0           

           TOTAL OUT = 20911065761.7505             TOTAL OUT =    36397582.1028

            IN - OUT =        4926.4936              IN - OUT =           0.1433

 PERCENT DISCREPANCY =           0.00     PERCENT DISCREPANCY =           0.00




         TIME SUMMARY AT END OF TIME STEP    1 IN STRESS PERIOD  219
                          TIME STEP LENGTH =    1.00000    
                        STRESS PERIOD TIME =    1.00000    
                     TOTAL SIMULATION TIME =    219.000    

end timestep


start timestep kper="220" kstp="1" mode="normal"


 OUTPUT CONTROL FOR STRESS PERIOD 220 IS REPEATED USING SETTINGS FROM A PREVIOUS STRESS PERIOD.


 STRESS PERIOD 220 IS TRANSIENT


 REUSING WELS FROM LAST STRESS PERIOD

 REUSING DRNS FROM LAST STRESS PERIOD

 REUSING RCHS FROM LAST STRESS PERIOD


  VOLUME BUDGET FOR ENTIRE MODEL AT END OF TIME STEP    1, STRESS PERIOD 220
  ---------------------------------------------------------------------------------------------------

     CUMULATIVE VOLUME      L**3       RATES FOR THIS TIME STEP      L**3/T          PACKAGE NAME    
     ------------------                 ------------------------                     ----------------

           IN:                                      IN:
           ---                                      ---
              STO-SS =           0.0000                STO-SS =           0.0000     STORAGE         
              STO-SY =  4816011678.5408                STO-SY =    38734488.7926     STORAGE         
                 WEL =           0.0000                   WEL =           0.0000     WEL_0           
                 DRN =           0.0000                   DRN =           0.0000     DRN_0           
                 RCH = 16158789648.0262                   RCH =    24996149.5304     RCH_0           

            TOTAL IN = 20974801326.5670              TOTAL IN =    63730638.3230

          OUT:                                     OUT:
          ----                                     ----
              STO-SS =           0.0000                STO-SS =           0.0000     STORAGE         
              STO-SY =  3914795357.3447                STO-SY =     5921516.0238     STORAGE         
                 WEL =  1485865440.7214                   WEL =    30844523.9165     WEL_0           
                 DRN = 15574135601.7377                   DRN =    26964598.1131     DRN_0           
                 RCH =           0.0000                   RCH =           0.0000     RCH_0           

           TOTAL OUT = 20974796399.8038             TOTAL OUT =    63730638.0534

            IN - OUT =        4926.7632              IN - OUT =           0.2696

 PERCENT DISCREPANCY =           0.00     PERCENT DISCREPANCY =           0.00




         TIME SUMMARY AT END OF TIME STEP    1 IN STRESS PERIOD  220
                          TIME STEP LENGTH =    1.00000    
                        STRESS PERIOD TIME =    1.00000    
                     TOTAL SIMULATION TIME =    220.000    

end timestep


start timestep kper="221" kstp="1" mode="normal"


 OUTPUT CONTROL FOR STRESS PERIOD 221 IS REPEATED USING SETTINGS FROM A PREVIOUS STRESS PERIOD.


 STRESS PERIOD 221 IS TRANSIENT


 REUSING WELS FROM LAST STRESS PERIOD

 REUSING DRNS FROM LAST STRESS PERIOD

 REUSING RCHS FROM LAST STRESS PERIOD


  VOLUME BUDGET FOR ENTIRE MODEL AT END OF TIME STEP    1, STRESS PERIOD 221
  ---------------------------------------------------------------------------------------------------

     CUMULATIVE VOLUME      L**3       RATES FOR THIS TIME STEP      L**3/T          PACKAGE NAME    
     ------------------                 ------------------------                     ----------------

           IN:                                      IN:
           ---                                      ---
              STO-SS =           0.0000                STO-SS =           0.0000     STORAGE         
              STO-SY =  4846733395.8022                STO-SY =    30721717.2614     STORAGE         
                 WEL =           0.0000                   WEL =           0.0000     WEL_0           
                 DRN =           0.0000                   DRN =           0.0000     DRN_0           
                 RCH = 16175841290.9748                   RCH =    17051642.9487     RCH_0           

            TOTAL IN = 21022574686.7771              TOTAL IN =    47773360.2100

          OUT:                                     OUT:
          ----                                     ----
              STO-SS =           0.0000                STO-SS =           0.0000     STORAGE         
              STO-SY =  3918745538.7189                STO-SY =     3950181.3742     STORAGE         
                 WEL =  1504943836.7770                   WEL =    19078396.0555     WEL_0           
                 DRN = 15598880388.7753                   DRN =    24744787.0376     DRN_0           
                 RCH =           0.0000                   RCH =           0.0000     RCH_0           

           TOTAL OUT = 21022569764.2712             TOTAL OUT =    47773364.4674

            IN - OUT =        4922.5058              IN - OUT =          -4.2573

 PERCENT DISCREPANCY =           0.00     PERCENT DISCREPANCY =          -0.00




         TIME SUMMARY AT END OF TIME STEP    1 IN STRESS PERIOD  221
                          TIME STEP LENGTH =    1.00000    
                        STRESS PERIOD TIME =    1.00000    
                     TOTAL SIMULATION TIME =    221.000    

end timestep


start timestep kper="222" kstp="1" mode="normal"


 OUTPUT CONTROL FOR STRESS PERIOD 222 IS REPEATED USING SETTINGS FROM A PREVIOUS STRESS PERIOD.


 STRESS PERIOD 222 IS TRANSIENT


 REUSING WELS FROM LAST STRESS PERIOD

 REUSING DRNS FROM LAST STRESS PERIOD

 REUSING RCHS FROM LAST STRESS PERIOD


  VOLUME BUDGET FOR ENTIRE MODEL AT END OF TIME STEP    1, STRESS PERIOD 222
  ---------------------------------------------------------------------------------------------------

     CUMULATIVE VOLUME      L**3       RATES FOR THIS TIME STEP      L**3/T          PACKAGE NAME    
     ------------------                 ------------------------                     ----------------

           IN:                                      IN:
           ---                                      ---
              STO-SS =           0.0000                STO-SS =           0.0000     STORAGE         
              STO-SY =  4875911852.5482                STO-SY =    29178456.7460     STORAGE         
                 WEL =           0.0000                   WEL =           0.0000     WEL_0           
                 DRN =           0.0000                   DRN =           0.0000     DRN_0           
                 RCH = 16194208422.4658                   RCH =    18367131.4909     RCH_0           

            TOTAL IN = 21070120275.0140              TOTAL IN =    47545588.2369

          OUT:                                     OUT:
          ----                                     ----
              STO-SS =           0.0000                STO-SS =           0.0000     STORAGE         
              STO-SY =  3922338481.3415                STO-SY =     3592942.6226     STORAGE         
                 WEL =  1522666324.6760                   WEL =    17722487.8990     WEL_0           
                 DRN = 15625110544.6305                   DRN =    26230155.8552     DRN_0           
                 RCH =           0.0000                   RCH =           0.0000     RCH_0           

           TOTAL OUT = 21070115350.6480             TOTAL OUT =    47545586.3768

            IN - OUT =        4924.3660              IN - OUT =           1.8601

 PERCENT DISCREPANCY =           0.00     PERCENT DISCREPANCY =           0.00




         TIME SUMMARY AT END OF TIME STEP    1 IN STRESS PERIOD  222
                          TIME STEP LENGTH =    1.00000    
                        STRESS PERIOD TIME =    1.00000    
                     TOTAL SIMULATION TIME =    222.000    

end timestep


start timestep kper="223" kstp="1" mode="normal"


 OUTPUT CONTROL FOR STRESS PERIOD 223 IS REPEATED USING SETTINGS FROM A PREVIOUS STRESS PERIOD.


 STRESS PERIOD 223 IS TRANSIENT


 REUSING WELS FROM LAST STRESS PERIOD

 REUSING DRNS FROM LAST STRESS PERIOD

 REUSING RCHS FROM LAST STRESS PERIOD


  VOLUME BUDGET FOR ENTIRE MODEL AT END OF TIME STEP    1, STRESS PERIOD 223
  ---------------------------------------------------------------------------------------------------

     CUMULATIVE VOLUME      L**3       RATES FOR THIS TIME STEP      L**3/T          PACKAGE NAME    
     ------------------                 ------------------------                     ----------------

           IN:                                      IN:
           ---                                      ---
              STO-SS =           0.0000                STO-SS =           0.0000     STORAGE         
              STO-SY =  4897774292.0551                STO-SY =    21862439.5069     STORAGE         
                 WEL =           0.0000                   WEL =           0.0000     WEL_0           
                 DRN =           0.0000                   DRN =           0.0000     DRN_0           
                 RCH = 16202448186.3889                   RCH =     8239763.9231     RCH_0           

            TOTAL IN = 21100222478.4440              TOTAL IN =    30102203.4300

          OUT:                                     OUT:
          ----                                     ----
              STO-SS =           0.0000                STO-SS =           0.0000     STORAGE         
              STO-SY =  3924262837.3378                STO-SY =     1924355.9962     STORAGE         
                 WEL =  1527312366.4868                   WEL =     4646041.8109     WEL_0           
                 DRN = 15648642337.7756                   DRN =    23531793.1452     DRN_0           
                 RCH =           0.0000                   RCH =           0.0000     RCH_0           

           TOTAL OUT = 21100217541.6002             TOTAL OUT =    30102190.9522

            IN - OUT =        4936.8437              IN - OUT =          12.4778

 PERCENT DISCREPANCY =           0.00     PERCENT DISCREPANCY =           0.00




         TIME SUMMARY AT END OF TIME STEP    1 IN STRESS PERIOD  223
                          TIME STEP LENGTH =    1.00000    
                        STRESS PERIOD TIME =    1.00000    
                     TOTAL SIMULATION TIME =    223.000    

end timestep


start timestep kper="224" kstp="1" mode="normal"


 OUTPUT CONTROL FOR STRESS PERIOD 224 IS REPEATED USING SETTINGS FROM A PREVIOUS STRESS PERIOD.


 STRESS PERIOD 224 IS TRANSIENT


 REUSING WELS FROM LAST STRESS PERIOD

 REUSING DRNS FROM LAST STRESS PERIOD

 REUSING RCHS FROM LAST STRESS PERIOD


  VOLUME BUDGET FOR ENTIRE MODEL AT END OF TIME STEP    1, STRESS PERIOD 224
  ---------------------------------------------------------------------------------------------------

     CUMULATIVE VOLUME      L**3       RATES FOR THIS TIME STEP      L**3/T          PACKAGE NAME    
     ------------------                 ------------------------                     ----------------

           IN:                                      IN:
           ---                                      ---
              STO-SS =           0.0000                STO-SS =           0.0000     STORAGE         
              STO-SY =  4929773862.1290                STO-SY =    31999570.0739     STORAGE         
                 WEL =           0.0000                   WEL =           0.0000     WEL_0           
                 DRN =           0.0000                   DRN =           0.0000     DRN_0           
                 RCH = 16222332508.1882                   RCH =    19884321.7993     RCH_0           

            TOTAL IN = 21152106370.3172              TOTAL IN =    51883891.8732

          OUT:                                     OUT:
          ----                                     ----
              STO-SS =           0.0000                STO-SS =           0.0000     STORAGE         
              STO-SY =  3928145643.8841                STO-SY =     3882806.5463     STORAGE         
                 WEL =  1549388492.5057                   WEL =    22076126.0189     WEL_0           
                 DRN = 15674567275.0984                   DRN =    25924937.3228     DRN_0           
                 RCH =           0.0000                   RCH =           0.0000     RCH_0           

           TOTAL OUT = 21152101411.4882             TOTAL OUT =    51883869.8879

            IN - OUT =        4958.8290              IN - OUT =          21.9853

 PERCENT DISCREPANCY =           0.00     PERCENT DISCREPANCY =           0.00




         TIME SUMMARY AT END OF TIME STEP    1 IN STRESS PERIOD  224
                          TIME STEP LENGTH =    1.00000    
                        STRESS PERIOD TIME =    1.00000    
                     TOTAL SIMULATION TIME =    224.000    

end timestep


start timestep kper="225" kstp="1" mode="normal"


 OUTPUT CONTROL FOR STRESS PERIOD 225 IS REPEATED USING SETTINGS FROM A PREVIOUS STRESS PERIOD.


 STRESS PERIOD 225 IS TRANSIENT


 REUSING WELS FROM LAST STRESS PERIOD

 REUSING DRNS FROM LAST STRESS PERIOD

 REUSING RCHS FROM LAST STRESS PERIOD


  VOLUME BUDGET FOR ENTIRE MODEL AT END OF TIME STEP    1, STRESS PERIOD 225
  ---------------------------------------------------------------------------------------------------

     CUMULATIVE VOLUME      L**3       RATES FOR THIS TIME STEP      L**3/T          PACKAGE NAME    
     ------------------                 ------------------------                     ----------------

           IN:                                      IN:
           ---                                      ---
              STO-SS =           0.0000                STO-SS =           0.0000     STORAGE         
              STO-SY =  4961123283.3341                STO-SY =    31349421.2051     STORAGE         
                 WEL =           0.0000                   WEL =           0.0000     WEL_0           
                 DRN =           0.0000                   DRN =           0.0000     DRN_0           
                 RCH = 16241082803.4303                   RCH =    18750295.2421     RCH_0           

            TOTAL IN = 21202206086.7644              TOTAL IN =    50099716.4472

          OUT:                                     OUT:
          ----                                     ----
              STO-SS =           0.0000                STO-SS =           0.0000     STORAGE         
              STO-SY =  3932779264.4689                STO-SY =     4633620.5849     STORAGE         
                 WEL =  1570791578.1876                   WEL =    21403085.6819     WEL_0           
                 DRN = 15698630258.1377                   DRN =    24062983.0393     DRN_0           
                 RCH =           0.0000                   RCH =           0.0000     RCH_0           

           TOTAL OUT = 21202201100.7942             TOTAL OUT =    50099689.3061

            IN - OUT =        4985.9702              IN - OUT =          27.1411

 PERCENT DISCREPANCY =           0.00     PERCENT DISCREPANCY =           0.00




         TIME SUMMARY AT END OF TIME STEP    1 IN STRESS PERIOD  225
                          TIME STEP LENGTH =    1.00000    
                        STRESS PERIOD TIME =    1.00000    
                     TOTAL SIMULATION TIME =    225.000    

end timestep


start timestep kper="226" kstp="1" mode="normal"


 OUTPUT CONTROL FOR STRESS PERIOD 226 IS REPEATED USING SETTINGS FROM A PREVIOUS STRESS PERIOD.


 STRESS PERIOD 226 IS TRANSIENT


 REUSING WELS FROM LAST STRESS PERIOD

 REUSING DRNS FROM LAST STRESS PERIOD

 REUSING RCHS FROM LAST STRESS PERIOD


  VOLUME BUDGET FOR ENTIRE MODEL AT END OF TIME STEP    1, STRESS PERIOD 226
  ---------------------------------------------------------------------------------------------------

     CUMULATIVE VOLUME      L**3       RATES FOR THIS TIME STEP      L**3/T          PACKAGE NAME    
     ------------------                 ------------------------                     ----------------

           IN:                                      IN:
           ---                                      ---
              STO-SS =           0.0000                STO-SS =           0.0000     STORAGE         
              STO-SY =  4990776433.2347                STO-SY =    29653149.9006     STORAGE         
                 WEL =           0.0000                   WEL =           0.0000     WEL_0           
                 DRN =           0.0000                   DRN =           0.0000     DRN_0           
                 RCH = 16261872639.5949                   RCH =    20789836.1647     RCH_0           

            TOTAL IN = 21252649072.8296              TOTAL IN =    50442986.0652

          OUT:                                     OUT:
          ----                                     ----
              STO-SS =           0.0000                STO-SS =           0.0000     STORAGE         
              STO-SY =  3937713387.8530                STO-SY =     4934123.3841     STORAGE         
                 WEL =  1590523861.3695                   WEL =    19732283.1819     WEL_0           
                 DRN = 15724406837.0814                   DRN =    25776578.9437     DRN_0           
                 RCH =           0.0000                   RCH =           0.0000     RCH_0           

           TOTAL OUT = 21252644086.3039             TOTAL OUT =    50442985.5097

            IN - OUT =        4986.5257              IN - OUT =           0.5555

 PERCENT DISCREPANCY =           0.00     PERCENT DISCREPANCY =           0.00




         TIME SUMMARY AT END OF TIME STEP    1 IN STRESS PERIOD  226
                          TIME STEP LENGTH =    1.00000    
                        STRESS PERIOD TIME =    1.00000    
                     TOTAL SIMULATION TIME =    226.000    

end timestep


start timestep kper="227" kstp="1" mode="normal"


 OUTPUT CONTROL FOR STRESS PERIOD 227 IS REPEATED USING SETTINGS FROM A PREVIOUS STRESS PERIOD.


 STRESS PERIOD 227 IS TRANSIENT


 REUSING WELS FROM LAST STRESS PERIOD

 REUSING DRNS FROM LAST STRESS PERIOD

 REUSING RCHS FROM LAST STRESS PERIOD


  VOLUME BUDGET FOR ENTIRE MODEL AT END OF TIME STEP    1, STRESS PERIOD 227
  ---------------------------------------------------------------------------------------------------

     CUMULATIVE VOLUME      L**3       RATES FOR THIS TIME STEP      L**3/T          PACKAGE NAME    
     ------------------                 ------------------------                     ----------------

           IN:                                      IN:
           ---                                      ---
              STO-SS =           0.0000                STO-SS =           0.0000     STORAGE         
              STO-SY =  5011490951.2321                STO-SY =    20714517.9974     STORAGE         
                 WEL =           0.0000                   WEL =           0.0000     WEL_0           
                 DRN =           0.0000                   DRN =           0.0000     DRN_0           
                 RCH = 16268252464.0707                   RCH =     6379824.4758     RCH_0           

            TOTAL IN = 21279743415.3028              TOTAL IN =    27094342.4731

          OUT:                                     OUT:
          ----                                     ----
              STO-SS =           0.0000                STO-SS =           0.0000     STORAGE         
              STO-SY =  3939619680.2559                STO-SY =     1906292.4029     STORAGE         
                 WEL =  1593083356.4940                   WEL =     2559495.1245     WEL_0           
                 DRN = 15747035379.0545                   DRN =    22628541.9731     DRN_0           
                 RCH =           0.0000                   RCH =           0.0000     RCH_0           

           TOTAL OUT = 21279738415.8044             TOTAL OUT =    27094329.5004

            IN - OUT =        4999.4984              IN - OUT =          12.9727

 PERCENT DISCREPANCY =           0.00     PERCENT DISCREPANCY =           0.00




         TIME SUMMARY AT END OF TIME STEP    1 IN STRESS PERIOD  227
                          TIME STEP LENGTH =    1.00000    
                        STRESS PERIOD TIME =    1.00000    
                     TOTAL SIMULATION TIME =    227.000    

end timestep


start timestep kper="228" kstp="1" mode="normal"


 OUTPUT CONTROL FOR STRESS PERIOD 228 IS REPEATED USING SETTINGS FROM A PREVIOUS STRESS PERIOD.


 STRESS PERIOD 228 IS TRANSIENT


 REUSING WELS FROM LAST STRESS PERIOD

 REUSING DRNS FROM LAST STRESS PERIOD

 REUSING RCHS FROM LAST STRESS PERIOD


  VOLUME BUDGET FOR ENTIRE MODEL AT END OF TIME STEP    1, STRESS PERIOD 228
  ---------------------------------------------------------------------------------------------------

     CUMULATIVE VOLUME      L**3       RATES FOR THIS TIME STEP      L**3/T          PACKAGE NAME    
     ------------------                 ------------------------                     ----------------

           IN:                                      IN:
           ---                                      ---
              STO-SS =           0.0000                STO-SS =           0.0000     STORAGE         
              STO-SY =  5031651848.8252                STO-SY =    20160897.5932     STORAGE         
                 WEL =           0.0000                   WEL =           0.0000     WEL_0           
                 DRN =           0.0000                   DRN =           0.0000     DRN_0           
                 RCH = 16276055623.0858                   RCH =     7803159.0151     RCH_0           

            TOTAL IN = 21307707471.9111              TOTAL IN =    27964056.6083

          OUT:                                     OUT:
          ----                                     ----
              STO-SS =           0.0000                STO-SS =           0.0000     STORAGE         
              STO-SY =  3941319805.9099                STO-SY =     1700125.6540     STORAGE         
                 WEL =  1595382786.6169                   WEL =     2299430.1229     WEL_0           
                 DRN = 15770999873.1513                   DRN =    23964494.0969     DRN_0           
                 RCH =           0.0000                   RCH =           0.0000     RCH_0           

           TOTAL OUT = 21307702465.6781             TOTAL OUT =    27964049.8737

            IN - OUT =        5006.2330              IN - OUT =           6.7346

 PERCENT DISCREPANCY =           0.00     PERCENT DISCREPANCY =           0.00




         TIME SUMMARY AT END OF TIME STEP    1 IN STRESS PERIOD  228
                          TIME STEP LENGTH =    1.00000    
                        STRESS PERIOD TIME =    1.00000    
                     TOTAL SIMULATION TIME =    228.000    

end timestep


start timestep kper="229" kstp="1" mode="normal"


 OUTPUT CONTROL FOR STRESS PERIOD 229 IS REPEATED USING SETTINGS FROM A PREVIOUS STRESS PERIOD.


 STRESS PERIOD 229 IS TRANSIENT


 REUSING WELS FROM LAST STRESS PERIOD

 REUSING DRNS FROM LAST STRESS PERIOD

 REUSING RCHS FROM LAST STRESS PERIOD


  VOLUME BUDGET FOR ENTIRE MODEL AT END OF TIME STEP    1, STRESS PERIOD 229
  ---------------------------------------------------------------------------------------------------

     CUMULATIVE VOLUME      L**3       RATES FOR THIS TIME STEP      L**3/T          PACKAGE NAME    
     ------------------                 ------------------------                     ----------------

           IN:                                      IN:
           ---                                      ---
              STO-SS =           0.0000                STO-SS =           0.0000     STORAGE         
              STO-SY =  5051352898.8838                STO-SY =    19701050.0586     STORAGE         
                 WEL =           0.0000                   WEL =           0.0000     WEL_0           
                 DRN =           0.0000                   DRN =           0.0000     DRN_0           
                 RCH = 16281947162.7230                   RCH =     5891539.6372     RCH_0           

            TOTAL IN = 21333300061.6068              TOTAL IN =    25592589.6957

          OUT:                                     OUT:
          ----                                     ----
              STO-SS =           0.0000                STO-SS =           0.0000     STORAGE         
              STO-SY =  3942862322.3423                STO-SY =     1542516.4324     STORAGE         
                 WEL =  1596978487.6022                   WEL =     1595700.9854     WEL_0           
                 DRN = 15793454246.5702                   DRN =    22454373.4188     DRN_0           
                 RCH =           0.0000                   RCH =           0.0000     RCH_0           

           TOTAL OUT = 21333295056.5147             TOTAL OUT =    25592590.8366

            IN - OUT =        5005.0921              IN - OUT =          -1.1409

 PERCENT DISCREPANCY =           0.00     PERCENT DISCREPANCY =          -0.00




         TIME SUMMARY AT END OF TIME STEP    1 IN STRESS PERIOD  229
                          TIME STEP LENGTH =    1.00000    
                        STRESS PERIOD TIME =    1.00000    
                     TOTAL SIMULATION TIME =    229.000    

end timestep


start timestep kper="230" kstp="1" mode="normal"


 OUTPUT CONTROL FOR STRESS PERIOD 230 IS REPEATED USING SETTINGS FROM A PREVIOUS STRESS PERIOD.


 STRESS PERIOD 230 IS TRANSIENT


 REUSING WELS FROM LAST STRESS PERIOD

 REUSING DRNS FROM LAST STRESS PERIOD

 REUSING RCHS FROM LAST STRESS PERIOD


  VOLUME BUDGET FOR ENTIRE MODEL AT END OF TIME STEP    1, STRESS PERIOD 230
  ---------------------------------------------------------------------------------------------------

     CUMULATIVE VOLUME      L**3       RATES FOR THIS TIME STEP      L**3/T          PACKAGE NAME    
     ------------------                 ------------------------                     ----------------

           IN:                                      IN:
           ---                                      ---
              STO-SS =           0.0000                STO-SS =           0.0000     STORAGE         
              STO-SY =  5071942561.0716                STO-SY =    20589662.1879     STORAGE         
                 WEL =           0.0000                   WEL =           0.0000     WEL_0           
                 DRN =           0.0000                   DRN =           0.0000     DRN_0           
                 RCH = 16290106507.3496                   RCH =     8159344.6266     RCH_0           

            TOTAL IN = 21362049068.4212              TOTAL IN =    28749006.8144

          OUT:                                     OUT:
          ----                                     ----
              STO-SS =           0.0000                STO-SS =           0.0000     STORAGE         
              STO-SY =  3944349407.6899                STO-SY =     1487085.3477     STORAGE         
                 WEL =  1600599592.5790                   WEL =     3621104.9767     WEL_0           
                 DRN = 15817095028.4068                   DRN =    23640781.8367     DRN_0           
                 RCH =           0.0000                   RCH =           0.0000     RCH_0           

           TOTAL OUT = 21362044028.6758             TOTAL OUT =    28748972.1611

            IN - OUT =        5039.7454              IN - OUT =          34.6533

 PERCENT DISCREPANCY =           0.00     PERCENT DISCREPANCY =           0.00




         TIME SUMMARY AT END OF TIME STEP    1 IN STRESS PERIOD  230
                          TIME STEP LENGTH =    1.00000    
                        STRESS PERIOD TIME =    1.00000    
                     TOTAL SIMULATION TIME =    230.000    

end timestep


start timestep kper="231" kstp="1" mode="normal"


 OUTPUT CONTROL FOR STRESS PERIOD 231 IS REPEATED USING SETTINGS FROM A PREVIOUS STRESS PERIOD.


 STRESS PERIOD 231 IS TRANSIENT


 REUSING WELS FROM LAST STRESS PERIOD

 REUSING DRNS FROM LAST STRESS PERIOD

 REUSING RCHS FROM LAST STRESS PERIOD


  VOLUME BUDGET FOR ENTIRE MODEL AT END OF TIME STEP    1, STRESS PERIOD 231
  ---------------------------------------------------------------------------------------------------

     CUMULATIVE VOLUME      L**3       RATES FOR THIS TIME STEP      L**3/T          PACKAGE NAME    
     ------------------                 ------------------------                     ----------------

           IN:                                      IN:
           ---                                      ---
              STO-SS =           0.0000                STO-SS =           0.0000     STORAGE         
              STO-SY =  5098866878.6731                STO-SY =    26924317.6015     STORAGE         
                 WEL =           0.0000                   WEL =           0.0000     WEL_0           
                 DRN =           0.0000                   DRN =           0.0000     DRN_0           
                 RCH = 16305949898.4733                   RCH =    15843391.1237     RCH_0           

            TOTAL IN = 21404816777.1464              TOTAL IN =    42767708.7252

          OUT:                                     OUT:
          ----                                     ----
              STO-SS =           0.0000                STO-SS =           0.0000     STORAGE         
              STO-SY =  3948908747.6473                STO-SY =     4559339.9574     STORAGE         
                 WEL =  1615928053.6470                   WEL =    15328461.0680     WEL_0           
                 DRN = 15839974943.5546                   DRN =    22879915.1478     DRN_0           
                 RCH =           0.0000                   RCH =           0.0000     RCH_0           

           TOTAL OUT = 21404811744.8490             TOTAL OUT =    42767716.1732

            IN - OUT =        5032.2975              IN - OUT =          -7.4480

 PERCENT DISCREPANCY =           0.00     PERCENT DISCREPANCY =          -0.00




         TIME SUMMARY AT END OF TIME STEP    1 IN STRESS PERIOD  231
                          TIME STEP LENGTH =    1.00000    
                        STRESS PERIOD TIME =    1.00000    
                     TOTAL SIMULATION TIME =    231.000    

end timestep


start timestep kper="232" kstp="1" mode="normal"


 OUTPUT CONTROL FOR STRESS PERIOD 232 IS REPEATED USING SETTINGS FROM A PREVIOUS STRESS PERIOD.


 STRESS PERIOD 232 IS TRANSIENT


 REUSING WELS FROM LAST STRESS PERIOD

 REUSING DRNS FROM LAST STRESS PERIOD

 REUSING RCHS FROM LAST STRESS PERIOD


  VOLUME BUDGET FOR ENTIRE MODEL AT END OF TIME STEP    1, STRESS PERIOD 232
  ---------------------------------------------------------------------------------------------------

     CUMULATIVE VOLUME      L**3       RATES FOR THIS TIME STEP      L**3/T          PACKAGE NAME    
     ------------------                 ------------------------                     ----------------

           IN:                                      IN:
           ---                                      ---
              STO-SS =           0.0000                STO-SS =           0.0000     STORAGE         
              STO-SY =  5126194560.7053                STO-SY =    27327682.0322     STORAGE         
                 WEL =           0.0000                   WEL =           0.0000     WEL_0           
                 DRN =           0.0000                   DRN =           0.0000     DRN_0           
                 RCH = 16321848122.7228                   RCH =    15898224.2495     RCH_0           

            TOTAL IN = 21448042683.4282              TOTAL IN =    43225906.2817

          OUT:                                     OUT:
          ----                                     ----
              STO-SS =           0.0000                STO-SS =           0.0000     STORAGE         
              STO-SY =  3952555462.8845                STO-SY =     3646715.2372     STORAGE         
                 WEL =  1631777431.7311                   WEL =    15849378.0840     WEL_0           
                 DRN = 15863704758.1924                   DRN =    23729814.6377     DRN_0           
                 RCH =           0.0000                   RCH =           0.0000     RCH_0           

           TOTAL OUT = 21448037652.8079             TOTAL OUT =    43225907.9589

            IN - OUT =        5030.6203              IN - OUT =          -1.6772

 PERCENT DISCREPANCY =           0.00     PERCENT DISCREPANCY =          -0.00




         TIME SUMMARY AT END OF TIME STEP    1 IN STRESS PERIOD  232
                          TIME STEP LENGTH =    1.00000    
                        STRESS PERIOD TIME =    1.00000    
                     TOTAL SIMULATION TIME =    232.000    

end timestep


start timestep kper="233" kstp="1" mode="normal"


 OUTPUT CONTROL FOR STRESS PERIOD 233 IS REPEATED USING SETTINGS FROM A PREVIOUS STRESS PERIOD.


 STRESS PERIOD 233 IS TRANSIENT


 REUSING WELS FROM LAST STRESS PERIOD

 REUSING DRNS FROM LAST STRESS PERIOD

 REUSING RCHS FROM LAST STRESS PERIOD


  VOLUME BUDGET FOR ENTIRE MODEL AT END OF TIME STEP    1, STRESS PERIOD 233
  ---------------------------------------------------------------------------------------------------

     CUMULATIVE VOLUME      L**3       RATES FOR THIS TIME STEP      L**3/T          PACKAGE NAME    
     ------------------                 ------------------------                     ----------------

           IN:                                      IN:
           ---                                      ---
              STO-SS =           0.0000                STO-SS =           0.0000     STORAGE         
              STO-SY =  5145679573.4672                STO-SY =    19485012.7618     STORAGE         
                 WEL =           0.0000                   WEL =           0.0000     WEL_0           
                 DRN =           0.0000                   DRN =           0.0000     DRN_0           
                 RCH = 16327913230.1094                   RCH =     6065107.3865     RCH_0           

            TOTAL IN = 21473592803.5765              TOTAL IN =    25550120.1484

          OUT:                                     OUT:
          ----                                     ----
              STO-SS =           0.0000                STO-SS =           0.0000     STORAGE         
              STO-SY =  3954357232.8299                STO-SY =     1801769.9455     STORAGE         
                 WEL =  1633891289.3620                   WEL =     2113857.6309     WEL_0           
                 DRN = 15885339250.7724                   DRN =    21634492.5801     DRN_0           
                 RCH =           0.0000                   RCH =           0.0000     RCH_0           

           TOTAL OUT = 21473587772.9643             TOTAL OUT =    25550120.1564

            IN - OUT =        5030.6122              IN - OUT =      -8.0679E-03

 PERCENT DISCREPANCY =           0.00     PERCENT DISCREPANCY =          -0.00




         TIME SUMMARY AT END OF TIME STEP    1 IN STRESS PERIOD  233
                          TIME STEP LENGTH =    1.00000    
                        STRESS PERIOD TIME =    1.00000    
                     TOTAL SIMULATION TIME =    233.000    

end timestep


start timestep kper="234" kstp="1" mode="normal"


 OUTPUT CONTROL FOR STRESS PERIOD 234 IS REPEATED USING SETTINGS FROM A PREVIOUS STRESS PERIOD.


 STRESS PERIOD 234 IS TRANSIENT


 REUSING WELS FROM LAST STRESS PERIOD

 REUSING DRNS FROM LAST STRESS PERIOD

 REUSING RCHS FROM LAST STRESS PERIOD


  VOLUME BUDGET FOR ENTIRE MODEL AT END OF TIME STEP    1, STRESS PERIOD 234
  ---------------------------------------------------------------------------------------------------

     CUMULATIVE VOLUME      L**3       RATES FOR THIS TIME STEP      L**3/T          PACKAGE NAME    
     ------------------                 ------------------------                     ----------------

           IN:                                      IN:
           ---                                      ---
              STO-SS =           0.0000                STO-SS =           0.0000     STORAGE         
              STO-SY =  5165570018.4855                STO-SY =    19890445.0183     STORAGE         
                 WEL =           0.0000                   WEL =           0.0000     WEL_0           
                 DRN =           0.0000                   DRN =           0.0000     DRN_0           
                 RCH = 16335311122.6250                   RCH =     7397892.5156     RCH_0           

            TOTAL IN = 21500881141.1105              TOTAL IN =    27288337.5340

          OUT:                                     OUT:
          ----                                     ----
              STO-SS =           0.0000                STO-SS =           0.0000     STORAGE         
              STO-SY =  3955942481.0116                STO-SY =     1585248.1817     STORAGE         
                 WEL =  1636686546.0077                   WEL =     2795256.6457     WEL_0           
                 DRN = 15908247084.2331                   DRN =    22907833.4607     DRN_0           
                 RCH =           0.0000                   RCH =           0.0000     RCH_0           

           TOTAL OUT = 21500876111.2524             TOTAL OUT =    27288338.2881

            IN - OUT =        5029.8580              IN - OUT =          -0.7542

 PERCENT DISCREPANCY =           0.00     PERCENT DISCREPANCY =          -0.00




         TIME SUMMARY AT END OF TIME STEP    1 IN STRESS PERIOD  234
                          TIME STEP LENGTH =    1.00000    
                        STRESS PERIOD TIME =    1.00000    
                     TOTAL SIMULATION TIME =    234.000    

end timestep


start timestep kper="235" kstp="1" mode="normal"


 OUTPUT CONTROL FOR STRESS PERIOD 235 IS REPEATED USING SETTINGS FROM A PREVIOUS STRESS PERIOD.


 STRESS PERIOD 235 IS TRANSIENT


 REUSING WELS FROM LAST STRESS PERIOD

 REUSING DRNS FROM LAST STRESS PERIOD

 REUSING RCHS FROM LAST STRESS PERIOD


  VOLUME BUDGET FOR ENTIRE MODEL AT END OF TIME STEP    1, STRESS PERIOD 235
  ---------------------------------------------------------------------------------------------------

     CUMULATIVE VOLUME      L**3       RATES FOR THIS TIME STEP      L**3/T          PACKAGE NAME    
     ------------------                 ------------------------                     ----------------

           IN:                                      IN:
           ---                                      ---
              STO-SS =           0.0000                STO-SS =           0.0000     STORAGE         
              STO-SY =  5201489979.3010                STO-SY =    35919960.8155     STORAGE         
                 WEL =           0.0000                   WEL =           0.0000     WEL_0           
                 DRN =           0.0000                   DRN =           0.0000     DRN_0           
                 RCH = 16360078965.6298                   RCH =    24767843.0048     RCH_0           

            TOTAL IN = 21561568944.9309              TOTAL IN =    60687803.8204

          OUT:                                     OUT:
          ----                                     ----
              STO-SS =           0.0000                STO-SS =           0.0000     STORAGE         
              STO-SY =  3963340870.5781                STO-SY =     7398389.5665     STORAGE         
                 WEL =  1666641917.1839                   WEL =    29955371.1762     WEL_0           
                 DRN = 15931581127.5477                   DRN =    23334043.3145     DRN_0           
                 RCH =           0.0000                   RCH =           0.0000     RCH_0           

           TOTAL OUT = 21561563915.3097             TOTAL OUT =    60687804.0572

            IN - OUT =        5029.6212              IN - OUT =          -0.2368

 PERCENT DISCREPANCY =           0.00     PERCENT DISCREPANCY =          -0.00




         TIME SUMMARY AT END OF TIME STEP    1 IN STRESS PERIOD  235
                          TIME STEP LENGTH =    1.00000    
                        STRESS PERIOD TIME =    1.00000    
                     TOTAL SIMULATION TIME =    235.000    

end timestep


start timestep kper="236" kstp="1" mode="normal"


 OUTPUT CONTROL FOR STRESS PERIOD 236 IS REPEATED USING SETTINGS FROM A PREVIOUS STRESS PERIOD.


 STRESS PERIOD 236 IS TRANSIENT


 REUSING WELS FROM LAST STRESS PERIOD

 REUSING DRNS FROM LAST STRESS PERIOD

 REUSING RCHS FROM LAST STRESS PERIOD


  VOLUME BUDGET FOR ENTIRE MODEL AT END OF TIME STEP    1, STRESS PERIOD 236
  ---------------------------------------------------------------------------------------------------

     CUMULATIVE VOLUME      L**3       RATES FOR THIS TIME STEP      L**3/T          PACKAGE NAME    
     ------------------                 ------------------------                     ----------------

           IN:                                      IN:
           ---                                      ---
              STO-SS =           0.0000                STO-SS =           0.0000     STORAGE         
              STO-SY =  5235223024.6989                STO-SY =    33733045.3979     STORAGE         
                 WEL =           0.0000                   WEL =           0.0000     WEL_0           
                 DRN =           0.0000                   DRN =           0.0000     DRN_0           
                 RCH = 16385491374.2407                   RCH =    25412408.6109     RCH_0           

            TOTAL IN = 21620714398.9396              TOTAL IN =    59145454.0087

          OUT:                                     OUT:
          ----                                     ----
              STO-SS =           0.0000                STO-SS =           0.0000     STORAGE         
              STO-SY =  3971429701.0168                STO-SY =     8088830.4388     STORAGE         
                 WEL =  1693376609.9253                   WEL =    26734692.7414     WEL_0           
                 DRN = 15955903009.6461                   DRN =    24321882.0984     DRN_0           
                 RCH =           0.0000                   RCH =           0.0000     RCH_0           

           TOTAL OUT = 21620709320.5882             TOTAL OUT =    59145405.2785

            IN - OUT =        5078.3514              IN - OUT =          48.7302

 PERCENT DISCREPANCY =           0.00     PERCENT DISCREPANCY =           0.00




         TIME SUMMARY AT END OF TIME STEP    1 IN STRESS PERIOD  236
                          TIME STEP LENGTH =    1.00000    
                        STRESS PERIOD TIME =    1.00000    
                     TOTAL SIMULATION TIME =    236.000    

end timestep


start timestep kper="237" kstp="1" mode="normal"


 OUTPUT CONTROL FOR STRESS PERIOD 237 IS REPEATED USING SETTINGS FROM A PREVIOUS STRESS PERIOD.


 STRESS PERIOD 237 IS TRANSIENT


 REUSING WELS FROM LAST STRESS PERIOD

 REUSING DRNS FROM LAST STRESS PERIOD

 REUSING RCHS FROM LAST STRESS PERIOD


  VOLUME BUDGET FOR ENTIRE MODEL AT END OF TIME STEP    1, STRESS PERIOD 237
  ---------------------------------------------------------------------------------------------------

     CUMULATIVE VOLUME      L**3       RATES FOR THIS TIME STEP      L**3/T          PACKAGE NAME    
     ------------------                 ------------------------                     ----------------

           IN:                                      IN:
           ---                                      ---
              STO-SS =           0.0000                STO-SS =           0.0000     STORAGE         
              STO-SY =  5254097011.6704                STO-SY =    18873986.9715     STORAGE         
                 WEL =           0.0000                   WEL =           0.0000     WEL_0           
                 DRN =           0.0000                   DRN =           0.0000     DRN_0           
                 RCH = 16392037101.3464                   RCH =     6545727.1057     RCH_0           

            TOTAL IN = 21646134113.0168              TOTAL IN =    25419714.0772

          OUT:                                     OUT:
          ----                                     ----
              STO-SS =           0.0000                STO-SS =           0.0000     STORAGE         
              STO-SY =  3973991999.5454                STO-SY =     2562298.5286     STORAGE         
                 WEL =  1695386573.6786                   WEL =     2009963.7532     WEL_0           
                 DRN = 15976750454.8749                   DRN =    20847445.2289     DRN_0           
                 RCH =           0.0000                   RCH =           0.0000     RCH_0           

           TOTAL OUT = 21646129028.0989             TOTAL OUT =    25419707.5107

            IN - OUT =        5084.9179              IN - OUT =           6.5665

 PERCENT DISCREPANCY =           0.00     PERCENT DISCREPANCY =           0.00




         TIME SUMMARY AT END OF TIME STEP    1 IN STRESS PERIOD  237
                          TIME STEP LENGTH =    1.00000    
                        STRESS PERIOD TIME =    1.00000    
                     TOTAL SIMULATION TIME =    237.000    

end timestep


start timestep kper="238" kstp="1" mode="normal"


 OUTPUT CONTROL FOR STRESS PERIOD 238 IS REPEATED USING SETTINGS FROM A PREVIOUS STRESS PERIOD.


 STRESS PERIOD 238 IS TRANSIENT


 REUSING WELS FROM LAST STRESS PERIOD

 REUSING DRNS FROM LAST STRESS PERIOD

 REUSING RCHS FROM LAST STRESS PERIOD


  VOLUME BUDGET FOR ENTIRE MODEL AT END OF TIME STEP    1, STRESS PERIOD 238
  ---------------------------------------------------------------------------------------------------

     CUMULATIVE VOLUME      L**3       RATES FOR THIS TIME STEP      L**3/T          PACKAGE NAME    
     ------------------                 ------------------------                     ----------------

           IN:                                      IN:
           ---                                      ---
              STO-SS =           0.0000                STO-SS =           0.0000     STORAGE         
              STO-SY =  5277935073.3376                STO-SY =    23838061.6672     STORAGE         
                 WEL =           0.0000                   WEL =           0.0000     WEL_0           
                 DRN =           0.0000                   DRN =           0.0000     DRN_0           
                 RCH = 16408854003.6015                   RCH =    16816902.2551     RCH_0           

            TOTAL IN = 21686789076.9391              TOTAL IN =    40654963.9223

          OUT:                                     OUT:
          ----                                     ----
              STO-SS =           0.0000                STO-SS =           0.0000     STORAGE         
              STO-SY =  3978543864.7912                STO-SY =     4551865.2457     STORAGE         
                 WEL =  1707750374.7311                   WEL =    12363801.0526     WEL_0           
                 DRN = 16000489755.2146                   DRN =    23739300.3397     DRN_0           
                 RCH =           0.0000                   RCH =           0.0000     RCH_0           

           TOTAL OUT = 21686783994.7368             TOTAL OUT =    40654966.6379

            IN - OUT =        5082.2023              IN - OUT =          -2.7156

 PERCENT DISCREPANCY =           0.00     PERCENT DISCREPANCY =          -0.00




         TIME SUMMARY AT END OF TIME STEP    1 IN STRESS PERIOD  238
                          TIME STEP LENGTH =    1.00000    
                        STRESS PERIOD TIME =    1.00000    
                     TOTAL SIMULATION TIME =    238.000    

end timestep


start timestep kper="239" kstp="1" mode="normal"


 OUTPUT CONTROL FOR STRESS PERIOD 239 IS REPEATED USING SETTINGS FROM A PREVIOUS STRESS PERIOD.


 STRESS PERIOD 239 IS TRANSIENT


 REUSING WELS FROM LAST STRESS PERIOD

 REUSING DRNS FROM LAST STRESS PERIOD

 REUSING RCHS FROM LAST STRESS PERIOD


  VOLUME BUDGET FOR ENTIRE MODEL AT END OF TIME STEP    1, STRESS PERIOD 239
  ---------------------------------------------------------------------------------------------------

     CUMULATIVE VOLUME      L**3       RATES FOR THIS TIME STEP      L**3/T          PACKAGE NAME    
     ------------------                 ------------------------                     ----------------

           IN:                                      IN:
           ---                                      ---
              STO-SS =           0.0000                STO-SS =           0.0000     STORAGE         
              STO-SY =  5323678186.3283                STO-SY =    45743112.9906     STORAGE         
                 WEL =           0.0000                   WEL =           0.0000     WEL_0           
                 DRN =           0.0000                   DRN =           0.0000     DRN_0           
                 RCH = 16442180428.0177                   RCH =    33326424.4162     RCH_0           

            TOTAL IN = 21765858614.3459              TOTAL IN =    79069537.4068

          OUT:                                     OUT:
          ----                                     ----
              STO-SS =           0.0000                STO-SS =           0.0000     STORAGE         
              STO-SY =  3988223336.5247                STO-SY =     9679471.7336     STORAGE         
                 WEL =  1752197968.1711                   WEL =    44447593.4399     WEL_0           
                 DRN = 16025432229.5697                   DRN =    24942474.3551     DRN_0           
                 RCH =           0.0000                   RCH =           0.0000     RCH_0           

           TOTAL OUT = 21765853534.2655             TOTAL OUT =    79069539.5286

            IN - OUT =        5080.0805              IN - OUT =          -2.1218

 PERCENT DISCREPANCY =           0.00     PERCENT DISCREPANCY =          -0.00




         TIME SUMMARY AT END OF TIME STEP    1 IN STRESS PERIOD  239
                          TIME STEP LENGTH =    1.00000    
                        STRESS PERIOD TIME =    1.00000    
                     TOTAL SIMULATION TIME =    239.000    

end timestep


start timestep kper="240" kstp="1" mode="normal"


 OUTPUT CONTROL FOR STRESS PERIOD 240 IS REPEATED USING SETTINGS FROM A PREVIOUS STRESS PERIOD.


 STRESS PERIOD 240 IS TRANSIENT


 REUSING WELS FROM LAST STRESS PERIOD

 REUSING DRNS FROM LAST STRESS PERIOD

 REUSING RCHS FROM LAST STRESS PERIOD


  VOLUME BUDGET FOR ENTIRE MODEL AT END OF TIME STEP    1, STRESS PERIOD 240
  ---------------------------------------------------------------------------------------------------

     CUMULATIVE VOLUME      L**3       RATES FOR THIS TIME STEP      L**3/T          PACKAGE NAME    
     ------------------                 ------------------------                     ----------------

           IN:                                      IN:
           ---                                      ---
              STO-SS =           0.0000                STO-SS =           0.0000     STORAGE         
              STO-SY =  5342585194.3977                STO-SY =    18907008.0695     STORAGE         
                 WEL =           0.0000                   WEL =           0.0000     WEL_0           
                 DRN =           0.0000                   DRN =           0.0000     DRN_0           
                 RCH = 16449094022.5888                   RCH =     6913594.5711     RCH_0           

            TOTAL IN = 21791679216.9865              TOTAL IN =    25820602.6406

          OUT:                                     OUT:
          ----                                     ----
              STO-SS =           0.0000                STO-SS =           0.0000     STORAGE         
              STO-SY =  3990917175.3028                STO-SY =     2693838.7781     STORAGE         
                 WEL =  1753674969.7689                   WEL =     1477001.5979     WEL_0           
                 DRN = 16047081962.8309                   DRN =    21649733.2612     DRN_0           
                 RCH =           0.0000                   RCH =           0.0000     RCH_0           

           TOTAL OUT = 21791674107.9026             TOTAL OUT =    25820573.6371

            IN - OUT =        5109.0839              IN - OUT =          29.0035

 PERCENT DISCREPANCY =           0.00     PERCENT DISCREPANCY =           0.00




         TIME SUMMARY AT END OF TIME STEP    1 IN STRESS PERIOD  240
                          TIME STEP LENGTH =    1.00000    
                        STRESS PERIOD TIME =    1.00000    
                     TOTAL SIMULATION TIME =    240.000    

end timestep


start timestep kper="241" kstp="1" mode="normal"


 OUTPUT CONTROL FOR STRESS PERIOD 241 IS REPEATED USING SETTINGS FROM A PREVIOUS STRESS PERIOD.


 STRESS PERIOD 241 IS TRANSIENT


 REUSING WELS FROM LAST STRESS PERIOD

 REUSING DRNS FROM LAST STRESS PERIOD

 REUSING RCHS FROM LAST STRESS PERIOD


  VOLUME BUDGET FOR ENTIRE MODEL AT END OF TIME STEP    1, STRESS PERIOD 241
  ---------------------------------------------------------------------------------------------------

     CUMULATIVE VOLUME      L**3       RATES FOR THIS TIME STEP      L**3/T          PACKAGE NAME    
     ------------------                 ------------------------                     ----------------

           IN:                                      IN:
           ---                                      ---
              STO-SS =           0.0000                STO-SS =           0.0000     STORAGE         
              STO-SY =  5366920890.0321                STO-SY =    24335695.6343     STORAGE         
                 WEL =           0.0000                   WEL =           0.0000     WEL_0           
                 DRN =           0.0000                   DRN =           0.0000     DRN_0           
                 RCH = 16462347069.4890                   RCH =    13253046.9002     RCH_0           

            TOTAL IN = 21829267959.5210              TOTAL IN =    37588742.5345

          OUT:                                     OUT:
          ----                                     ----
              STO-SS =           0.0000                STO-SS =           0.0000     STORAGE         
              STO-SY =  3994752927.0228                STO-SY =     3835751.7200     STORAGE         
                 WEL =  1767025774.9211                   WEL =    13350805.1522     WEL_0           
                 DRN = 16067484148.3802                   DRN =    20402185.5494     DRN_0           
                 RCH =           0.0000                   RCH =           0.0000     RCH_0           

           TOTAL OUT = 21829262850.3241             TOTAL OUT =    37588742.4215

            IN - OUT =        5109.1970              IN - OUT =           0.1130

 PERCENT DISCREPANCY =           0.00     PERCENT DISCREPANCY =           0.00




         TIME SUMMARY AT END OF TIME STEP    1 IN STRESS PERIOD  241
                          TIME STEP LENGTH =    1.00000    
                        STRESS PERIOD TIME =    1.00000    
                     TOTAL SIMULATION TIME =    241.000    

end timestep


start timestep kper="242" kstp="1" mode="normal"


 OUTPUT CONTROL FOR STRESS PERIOD 242 IS REPEATED USING SETTINGS FROM A PREVIOUS STRESS PERIOD.


 STRESS PERIOD 242 IS TRANSIENT


 REUSING WELS FROM LAST STRESS PERIOD

 REUSING DRNS FROM LAST STRESS PERIOD

 REUSING RCHS FROM LAST STRESS PERIOD


  VOLUME BUDGET FOR ENTIRE MODEL AT END OF TIME STEP    1, STRESS PERIOD 242
  ---------------------------------------------------------------------------------------------------

     CUMULATIVE VOLUME      L**3       RATES FOR THIS TIME STEP      L**3/T          PACKAGE NAME    
     ------------------                 ------------------------                     ----------------

           IN:                                      IN:
           ---                                      ---
              STO-SS =           0.0000                STO-SS =           0.0000     STORAGE         
              STO-SY =  5389650854.8704                STO-SY =    22729964.8383     STORAGE         
                 WEL =           0.0000                   WEL =           0.0000     WEL_0           
                 DRN =           0.0000                   DRN =           0.0000     DRN_0           
                 RCH = 16472305553.5570                   RCH =     9958484.0680     RCH_0           

            TOTAL IN = 21861956408.4274              TOTAL IN =    32688448.9063

          OUT:                                     OUT:
          ----                                     ----
              STO-SS =           0.0000                STO-SS =           0.0000     STORAGE         
              STO-SY =  3996839576.9812                STO-SY =     2086649.9584     STORAGE         
                 WEL =  1776425815.2275                   WEL =     9400040.3064     WEL_0           
                 DRN = 16088685906.9761                   DRN =    21201758.5959     DRN_0           
                 RCH =           0.0000                   RCH =           0.0000     RCH_0           

           TOTAL OUT = 21861951299.1849             TOTAL OUT =    32688448.8608

            IN - OUT =        5109.2425              IN - OUT =       4.5531E-02

 PERCENT DISCREPANCY =           0.00     PERCENT DISCREPANCY =           0.00




         TIME SUMMARY AT END OF TIME STEP    1 IN STRESS PERIOD  242
                          TIME STEP LENGTH =    1.00000    
                        STRESS PERIOD TIME =    1.00000    
                     TOTAL SIMULATION TIME =    242.000    

end timestep


start timestep kper="243" kstp="1" mode="normal"


 OUTPUT CONTROL FOR STRESS PERIOD 243 IS REPEATED USING SETTINGS FROM A PREVIOUS STRESS PERIOD.


 STRESS PERIOD 243 IS TRANSIENT


 REUSING WELS FROM LAST STRESS PERIOD

 REUSING DRNS FROM LAST STRESS PERIOD

 REUSING RCHS FROM LAST STRESS PERIOD


  VOLUME BUDGET FOR ENTIRE MODEL AT END OF TIME STEP    1, STRESS PERIOD 243
  ---------------------------------------------------------------------------------------------------

     CUMULATIVE VOLUME      L**3       RATES FOR THIS TIME STEP      L**3/T          PACKAGE NAME    
     ------------------                 ------------------------                     ----------------

           IN:                                      IN:
           ---                                      ---
              STO-SS =           0.0000                STO-SS =           0.0000     STORAGE         
              STO-SY =  5412919118.6255                STO-SY =    23268263.7551     STORAGE         
                 WEL =           0.0000                   WEL =           0.0000     WEL_0           
                 DRN =           0.0000                   DRN =           0.0000     DRN_0           
                 RCH = 16480867648.6400                   RCH =     8562095.0830     RCH_0           

            TOTAL IN = 21893786767.2655              TOTAL IN =    31830358.8381

          OUT:                                     OUT:
          ----                                     ----
              STO-SS =           0.0000                STO-SS =           0.0000     STORAGE         
              STO-SY =  3998705955.1274                STO-SY =     1866378.1462     STORAGE         
                 WEL =  1786761553.3845                   WEL =    10335738.1570     WEL_0           
                 DRN = 16108314151.0288                   DRN =    19628244.0527     DRN_0           
                 RCH =           0.0000                   RCH =           0.0000     RCH_0           

           TOTAL OUT = 21893781659.5408             TOTAL OUT =    31830360.3559

            IN - OUT =        5107.7247              IN - OUT =          -1.5178

 PERCENT DISCREPANCY =           0.00     PERCENT DISCREPANCY =          -0.00




         TIME SUMMARY AT END OF TIME STEP    1 IN STRESS PERIOD  243
                          TIME STEP LENGTH =    1.00000    
                        STRESS PERIOD TIME =    1.00000    
                     TOTAL SIMULATION TIME =    243.000    

end timestep


start timestep kper="244" kstp="1" mode="normal"


 OUTPUT CONTROL FOR STRESS PERIOD 244 IS REPEATED USING SETTINGS FROM A PREVIOUS STRESS PERIOD.


 STRESS PERIOD 244 IS TRANSIENT


 REUSING WELS FROM LAST STRESS PERIOD

 REUSING DRNS FROM LAST STRESS PERIOD

 REUSING RCHS FROM LAST STRESS PERIOD


  VOLUME BUDGET FOR ENTIRE MODEL AT END OF TIME STEP    1, STRESS PERIOD 244
  ---------------------------------------------------------------------------------------------------

     CUMULATIVE VOLUME      L**3       RATES FOR THIS TIME STEP      L**3/T          PACKAGE NAME    
     ------------------                 ------------------------                     ----------------

           IN:                                      IN:
           ---                                      ---
              STO-SS =           0.0000                STO-SS =           0.0000     STORAGE         
              STO-SY =  5454332557.9870                STO-SY =    41413439.3615     STORAGE         
                 WEL =           0.0000                   WEL =           0.0000     WEL_0           
                 DRN =           0.0000                   DRN =           0.0000     DRN_0           
                 RCH = 16516318944.1690                   RCH =    35451295.5290     RCH_0           

            TOTAL IN = 21970651502.1560              TOTAL IN =    76864734.8905

          OUT:                                     OUT:
          ----                                     ----
              STO-SS =           0.0000                STO-SS =           0.0000     STORAGE         
              STO-SY =  4008710278.1039                STO-SY =    10004322.9765     STORAGE         
                 WEL =  1827242873.0099                   WEL =    40481319.6254     WEL_0           
                 DRN = 16134693285.8350                   DRN =    26379134.8062     DRN_0           
                 RCH =           0.0000                   RCH =           0.0000     RCH_0           

           TOTAL OUT = 21970646436.9488             TOTAL OUT =    76864777.4080

            IN - OUT =        5065.2072              IN - OUT =         -42.5175

 PERCENT DISCREPANCY =           0.00     PERCENT DISCREPANCY =          -0.00




         TIME SUMMARY AT END OF TIME STEP    1 IN STRESS PERIOD  244
                          TIME STEP LENGTH =    1.00000    
                        STRESS PERIOD TIME =    1.00000    
                     TOTAL SIMULATION TIME =    244.000    

end timestep


start timestep kper="245" kstp="1" mode="normal"


 OUTPUT CONTROL FOR STRESS PERIOD 245 IS REPEATED USING SETTINGS FROM A PREVIOUS STRESS PERIOD.


 STRESS PERIOD 245 IS TRANSIENT


 REUSING WELS FROM LAST STRESS PERIOD

 REUSING DRNS FROM LAST STRESS PERIOD

 REUSING RCHS FROM LAST STRESS PERIOD


  VOLUME BUDGET FOR ENTIRE MODEL AT END OF TIME STEP    1, STRESS PERIOD 245
  ---------------------------------------------------------------------------------------------------

     CUMULATIVE VOLUME      L**3       RATES FOR THIS TIME STEP      L**3/T          PACKAGE NAME    
     ------------------                 ------------------------                     ----------------

           IN:                                      IN:
           ---                                      ---
              STO-SS =           0.0000                STO-SS =           0.0000     STORAGE         
              STO-SY =  5475788040.9725                STO-SY =    21455482.9855     STORAGE         
                 WEL =           0.0000                   WEL =           0.0000     WEL_0           
                 DRN =           0.0000                   DRN =           0.0000     DRN_0           
                 RCH = 16523938730.3964                   RCH =     7619786.2274     RCH_0           

            TOTAL IN = 21999726771.3689              TOTAL IN =    29075269.2129

          OUT:                                     OUT:
          ----                                     ----
              STO-SS =           0.0000                STO-SS =           0.0000     STORAGE         
              STO-SY =  4011244378.4616                STO-SY =     2534100.3577     STORAGE         
                 WEL =  1834386344.2484                   WEL =     7143471.2385     WEL_0           
                 DRN = 16154090766.8889                   DRN =    19397481.0539     DRN_0           
                 RCH =           0.0000                   RCH =           0.0000     RCH_0           

           TOTAL OUT = 21999721489.5989             TOTAL OUT =    29075052.6501

            IN - OUT =        5281.7700              IN - OUT =         216.5628

 PERCENT DISCREPANCY =           0.00     PERCENT DISCREPANCY =           0.00




         TIME SUMMARY AT END OF TIME STEP    1 IN STRESS PERIOD  245
                          TIME STEP LENGTH =    1.00000    
                        STRESS PERIOD TIME =    1.00000    
                     TOTAL SIMULATION TIME =    245.000    

end timestep


start timestep kper="246" kstp="1" mode="normal"


 OUTPUT CONTROL FOR STRESS PERIOD 246 IS REPEATED USING SETTINGS FROM A PREVIOUS STRESS PERIOD.


 STRESS PERIOD 246 IS TRANSIENT


 REUSING WELS FROM LAST STRESS PERIOD

 REUSING DRNS FROM LAST STRESS PERIOD

 REUSING RCHS FROM LAST STRESS PERIOD


  VOLUME BUDGET FOR ENTIRE MODEL AT END OF TIME STEP    1, STRESS PERIOD 246
  ---------------------------------------------------------------------------------------------------

     CUMULATIVE VOLUME      L**3       RATES FOR THIS TIME STEP      L**3/T          PACKAGE NAME    
     ------------------                 ------------------------                     ----------------

           IN:                                      IN:
           ---                                      ---
              STO-SS =           0.0000                STO-SS =           0.0000     STORAGE         
              STO-SY =  5511416970.5129                STO-SY =    35628929.5405     STORAGE         
                 WEL =           0.0000                   WEL =           0.0000     WEL_0           
                 DRN =           0.0000                   DRN =           0.0000     DRN_0           
                 RCH = 16556587823.0581                   RCH =    32649092.6617     RCH_0           

            TOTAL IN = 22068004793.5710              TOTAL IN =    68278022.2021

          OUT:                                     OUT:
          ----                                     ----
              STO-SS =           0.0000                STO-SS =           0.0000     STORAGE         
              STO-SY =  4019430926.2467                STO-SY =     8186547.7851     STORAGE         
                 WEL =  1867755795.3444                   WEL =    33369451.0960     WEL_0           
                 DRN = 16180812769.8930                   DRN =    26722003.0040     DRN_0           
                 RCH =           0.0000                   RCH =           0.0000     RCH_0           

           TOTAL OUT = 22067999491.4840             TOTAL OUT =    68278001.8851

            IN - OUT =        5302.0870              IN - OUT =          20.3170

 PERCENT DISCREPANCY =           0.00     PERCENT DISCREPANCY =           0.00




         TIME SUMMARY AT END OF TIME STEP    1 IN STRESS PERIOD  246
                          TIME STEP LENGTH =    1.00000    
                        STRESS PERIOD TIME =    1.00000    
                     TOTAL SIMULATION TIME =    246.000    

end timestep


start timestep kper="247" kstp="1" mode="normal"


 OUTPUT CONTROL FOR STRESS PERIOD 247 IS REPEATED USING SETTINGS FROM A PREVIOUS STRESS PERIOD.


 STRESS PERIOD 247 IS TRANSIENT


 REUSING WELS FROM LAST STRESS PERIOD

 REUSING DRNS FROM LAST STRESS PERIOD

 REUSING RCHS FROM LAST STRESS PERIOD


  VOLUME BUDGET FOR ENTIRE MODEL AT END OF TIME STEP    1, STRESS PERIOD 247
  ---------------------------------------------------------------------------------------------------

     CUMULATIVE VOLUME      L**3       RATES FOR THIS TIME STEP      L**3/T          PACKAGE NAME    
     ------------------                 ------------------------                     ----------------

           IN:                                      IN:
           ---                                      ---
              STO-SS =           0.0000                STO-SS =           0.0000     STORAGE         
              STO-SY =  5542846951.1026                STO-SY =    31429980.5896     STORAGE         
                 WEL =           0.0000                   WEL =           0.0000     WEL_0           
                 DRN =           0.0000                   DRN =           0.0000     DRN_0           
                 RCH = 16574896237.4430                   RCH =    18308414.3849     RCH_0           

            TOTAL IN = 22117743188.5455              TOTAL IN =    49738394.9745

          OUT:                                     OUT:
          ----                                     ----
              STO-SS =           0.0000                STO-SS =           0.0000     STORAGE         
              STO-SY =  4023503335.8010                STO-SY =     4072409.5543     STORAGE         
                 WEL =  1893990061.7610                   WEL =    26234266.4167     WEL_0           
                 DRN = 16200244464.8641                   DRN =    19431694.9712     DRN_0           
                 RCH =           0.0000                   RCH =           0.0000     RCH_0           

           TOTAL OUT = 22117737862.4262             TOTAL OUT =    49738370.9422

            IN - OUT =        5326.1194              IN - OUT =          24.0323

 PERCENT DISCREPANCY =           0.00     PERCENT DISCREPANCY =           0.00




         TIME SUMMARY AT END OF TIME STEP    1 IN STRESS PERIOD  247
                          TIME STEP LENGTH =    1.00000    
                        STRESS PERIOD TIME =    1.00000    
                     TOTAL SIMULATION TIME =    247.000    

end timestep


start timestep kper="248" kstp="1" mode="normal"


 OUTPUT CONTROL FOR STRESS PERIOD 248 IS REPEATED USING SETTINGS FROM A PREVIOUS STRESS PERIOD.


 STRESS PERIOD 248 IS TRANSIENT


 REUSING WELS FROM LAST STRESS PERIOD

 REUSING DRNS FROM LAST STRESS PERIOD

 REUSING RCHS FROM LAST STRESS PERIOD


  VOLUME BUDGET FOR ENTIRE MODEL AT END OF TIME STEP    1, STRESS PERIOD 248
  ---------------------------------------------------------------------------------------------------

     CUMULATIVE VOLUME      L**3       RATES FOR THIS TIME STEP      L**3/T          PACKAGE NAME    
     ------------------                 ------------------------                     ----------------

           IN:                                      IN:
           ---                                      ---
              STO-SS =           0.0000                STO-SS =           0.0000     STORAGE         
              STO-SY =  5563327342.1072                STO-SY =    20480391.0046     STORAGE         
                 WEL =           0.0000                   WEL =           0.0000     WEL_0           
                 DRN =           0.0000                   DRN =           0.0000     DRN_0           
                 RCH = 16589562037.2769                   RCH =    14665799.8339     RCH_0           

            TOTAL IN = 22152889379.3841              TOTAL IN =    35146190.8386

          OUT:                                     OUT:
          ----                                     ----
              STO-SS =           0.0000                STO-SS =           0.0000     STORAGE         
              STO-SY =  4028026637.0090                STO-SY =     4523301.2080     STORAGE         
                 WEL =  1902960639.4523                   WEL =     8970577.6912     WEL_0           
                 DRN = 16221896777.9324                   DRN =    21652313.0683     DRN_0           
                 RCH =           0.0000                   RCH =           0.0000     RCH_0           

           TOTAL OUT = 22152884054.3937             TOTAL OUT =    35146191.9675

            IN - OUT =        5324.9904              IN - OUT =          -1.1289

 PERCENT DISCREPANCY =           0.00     PERCENT DISCREPANCY =          -0.00




         TIME SUMMARY AT END OF TIME STEP    1 IN STRESS PERIOD  248
                          TIME STEP LENGTH =    1.00000    
                        STRESS PERIOD TIME =    1.00000    
                     TOTAL SIMULATION TIME =    248.000    

end timestep


start timestep kper="249" kstp="1" mode="normal"


 OUTPUT CONTROL FOR STRESS PERIOD 249 IS REPEATED USING SETTINGS FROM A PREVIOUS STRESS PERIOD.


 STRESS PERIOD 249 IS TRANSIENT


 REUSING WELS FROM LAST STRESS PERIOD

 REUSING DRNS FROM LAST STRESS PERIOD

 REUSING RCHS FROM LAST STRESS PERIOD


  VOLUME BUDGET FOR ENTIRE MODEL AT END OF TIME STEP    1, STRESS PERIOD 249
  ---------------------------------------------------------------------------------------------------

     CUMULATIVE VOLUME      L**3       RATES FOR THIS TIME STEP      L**3/T          PACKAGE NAME    
     ------------------                 ------------------------                     ----------------

           IN:                                      IN:
           ---                                      ---
              STO-SS =           0.0000                STO-SS =           0.0000     STORAGE         
              STO-SY =  5582605944.9416                STO-SY =    19278602.8344     STORAGE         
                 WEL =           0.0000                   WEL =           0.0000     WEL_0           
                 DRN =           0.0000                   DRN =           0.0000     DRN_0           
                 RCH = 16597041337.0660                   RCH =     7479299.7891     RCH_0           

            TOTAL IN = 22179647282.0076              TOTAL IN =    26757902.6235

          OUT:                                     OUT:
          ----                                     ----
              STO-SS =           0.0000                STO-SS =           0.0000     STORAGE         
              STO-SY =  4030704914.1421                STO-SY =     2678277.1331     STORAGE         
                 WEL =  1908117060.7913                   WEL =     5156421.3390     WEL_0           
                 DRN = 16240819971.4066                   DRN =    18923193.4742     DRN_0           
                 RCH =           0.0000                   RCH =           0.0000     RCH_0           

           TOTAL OUT = 22179641946.3400             TOTAL OUT =    26757891.9463

            IN - OUT =        5335.6676              IN - OUT =          10.6772

 PERCENT DISCREPANCY =           0.00     PERCENT DISCREPANCY =           0.00




         TIME SUMMARY AT END OF TIME STEP    1 IN STRESS PERIOD  249
                          TIME STEP LENGTH =    1.00000    
                        STRESS PERIOD TIME =    1.00000    
                     TOTAL SIMULATION TIME =    249.000    

end timestep


start timestep kper="250" kstp="1" mode="normal"


 OUTPUT CONTROL FOR STRESS PERIOD 250 IS REPEATED USING SETTINGS FROM A PREVIOUS STRESS PERIOD.


 STRESS PERIOD 250 IS TRANSIENT


 REUSING WELS FROM LAST STRESS PERIOD

 REUSING DRNS FROM LAST STRESS PERIOD

 REUSING RCHS FROM LAST STRESS PERIOD


  VOLUME BUDGET FOR ENTIRE MODEL AT END OF TIME STEP    1, STRESS PERIOD 250
  ---------------------------------------------------------------------------------------------------

     CUMULATIVE VOLUME      L**3       RATES FOR THIS TIME STEP      L**3/T          PACKAGE NAME    
     ------------------                 ------------------------                     ----------------

           IN:                                      IN:
           ---                                      ---
              STO-SS =           0.0000                STO-SS =           0.0000     STORAGE         
              STO-SY =  5605148999.7439                STO-SY =    22543054.8023     STORAGE         
                 WEL =           0.0000                   WEL =           0.0000     WEL_0           
                 DRN =           0.0000                   DRN =           0.0000     DRN_0           
                 RCH = 16612785375.4712                   RCH =    15744038.4052     RCH_0           

            TOTAL IN = 22217934375.2151              TOTAL IN =    38287093.2075

          OUT:                                     OUT:
          ----                                     ----
              STO-SS =           0.0000                STO-SS =           0.0000     STORAGE         
              STO-SY =  4034615649.0503                STO-SY =     3910734.9082     STORAGE         
                 WEL =  1921159526.0973                   WEL =    13042465.3061     WEL_0           
                 DRN = 16262153864.3910                   DRN =    21333892.9845     DRN_0           
                 RCH =           0.0000                   RCH =           0.0000     RCH_0           

           TOTAL OUT = 22217929039.5387             TOTAL OUT =    38287093.1987

            IN - OUT =        5335.6765              IN - OUT =       8.8388E-03

 PERCENT DISCREPANCY =           0.00     PERCENT DISCREPANCY =           0.00




         TIME SUMMARY AT END OF TIME STEP    1 IN STRESS PERIOD  250
                          TIME STEP LENGTH =    1.00000    
                        STRESS PERIOD TIME =    1.00000    
                     TOTAL SIMULATION TIME =    250.000    

end timestep


start timestep kper="251" kstp="1" mode="normal"


 OUTPUT CONTROL FOR STRESS PERIOD 251 IS REPEATED USING SETTINGS FROM A PREVIOUS STRESS PERIOD.


 STRESS PERIOD 251 IS TRANSIENT


 REUSING WELS FROM LAST STRESS PERIOD

 REUSING DRNS FROM LAST STRESS PERIOD

 REUSING RCHS FROM LAST STRESS PERIOD


  VOLUME BUDGET FOR ENTIRE MODEL AT END OF TIME STEP    1, STRESS PERIOD 251
  ---------------------------------------------------------------------------------------------------

     CUMULATIVE VOLUME      L**3       RATES FOR THIS TIME STEP      L**3/T          PACKAGE NAME    
     ------------------                 ------------------------                     ----------------

           IN:                                      IN:
           ---                                      ---
              STO-SS =           0.0000                STO-SS =           0.0000     STORAGE         
              STO-SY =  5649351929.8860                STO-SY =    44202930.1420     STORAGE         
                 WEL =           0.0000                   WEL =           0.0000     WEL_0           
                 DRN =           0.0000                   DRN =           0.0000     DRN_0           
                 RCH = 16642398304.0156                   RCH =    29612928.5445     RCH_0           

            TOTAL IN = 22291750233.9016              TOTAL IN =    73815858.6865

          OUT:                                     OUT:
          ----                                     ----
              STO-SS =           0.0000                STO-SS =           0.0000     STORAGE         
              STO-SY =  4042015964.1862                STO-SY =     7400315.1359     STORAGE         
                 WEL =  1967172558.5089                   WEL =    46013032.4116     WEL_0           
                 DRN = 16282556364.5794                   DRN =    20402500.1884     DRN_0           
                 RCH =           0.0000                   RCH =           0.0000     RCH_0           

           TOTAL OUT = 22291744887.2745             TOTAL OUT =    73815847.7358

            IN - OUT =        5346.6271              IN - OUT =          10.9507

 PERCENT DISCREPANCY =           0.00     PERCENT DISCREPANCY =           0.00




         TIME SUMMARY AT END OF TIME STEP    1 IN STRESS PERIOD  251
                          TIME STEP LENGTH =    1.00000    
                        STRESS PERIOD TIME =    1.00000    
                     TOTAL SIMULATION TIME =    251.000    

end timestep


start timestep kper="252" kstp="1" mode="normal"


 OUTPUT CONTROL FOR STRESS PERIOD 252 IS REPEATED USING SETTINGS FROM A PREVIOUS STRESS PERIOD.


 STRESS PERIOD 252 IS TRANSIENT


 REUSING WELS FROM LAST STRESS PERIOD

 REUSING DRNS FROM LAST STRESS PERIOD

 REUSING RCHS FROM LAST STRESS PERIOD


  VOLUME BUDGET FOR ENTIRE MODEL AT END OF TIME STEP    1, STRESS PERIOD 252
  ---------------------------------------------------------------------------------------------------

     CUMULATIVE VOLUME      L**3       RATES FOR THIS TIME STEP      L**3/T          PACKAGE NAME    
     ------------------                 ------------------------                     ----------------

           IN:                                      IN:
           ---                                      ---
              STO-SS =           0.0000                STO-SS =           0.0000     STORAGE         
              STO-SY =  5686510729.8583                STO-SY =    37158799.9723     STORAGE         
                 WEL =           0.0000                   WEL =           0.0000     WEL_0           
                 DRN =           0.0000                   DRN =           0.0000     DRN_0           
                 RCH = 16671355485.7646                   RCH =    28957181.7489     RCH_0           

            TOTAL IN = 22357866215.6229              TOTAL IN =    66115981.7213

          OUT:                                     OUT:
          ----                                     ----
              STO-SS =           0.0000                STO-SS =           0.0000     STORAGE         
              STO-SY =  4047606938.2913                STO-SY =     5590974.1051     STORAGE         
                 WEL =  2004312099.1883                   WEL =    37139540.6794     WEL_0           
                 DRN = 16305941831.6470                   DRN =    23385467.0675     DRN_0           
                 RCH =           0.0000                   RCH =           0.0000     RCH_0           

           TOTAL OUT = 22357860869.1265             TOTAL OUT =    66115981.8520

            IN - OUT =        5346.4964              IN - OUT =          -0.1307

 PERCENT DISCREPANCY =           0.00     PERCENT DISCREPANCY =          -0.00




         TIME SUMMARY AT END OF TIME STEP    1 IN STRESS PERIOD  252
                          TIME STEP LENGTH =    1.00000    
                        STRESS PERIOD TIME =    1.00000    
                     TOTAL SIMULATION TIME =    252.000    

end timestep


start timestep kper="253" kstp="1" mode="normal"


 OUTPUT CONTROL FOR STRESS PERIOD 253 IS REPEATED USING SETTINGS FROM A PREVIOUS STRESS PERIOD.


 STRESS PERIOD 253 IS TRANSIENT


 REUSING WELS FROM LAST STRESS PERIOD

 REUSING DRNS FROM LAST STRESS PERIOD

 REUSING RCHS FROM LAST STRESS PERIOD


  VOLUME BUDGET FOR ENTIRE MODEL AT END OF TIME STEP    1, STRESS PERIOD 253
  ---------------------------------------------------------------------------------------------------

     CUMULATIVE VOLUME      L**3       RATES FOR THIS TIME STEP      L**3/T          PACKAGE NAME    
     ------------------                 ------------------------                     ----------------

           IN:                                      IN:
           ---                                      ---
              STO-SS =           0.0000                STO-SS =           0.0000     STORAGE         
              STO-SY =  5714816551.9329                STO-SY =    28305822.0746     STORAGE         
                 WEL =           0.0000                   WEL =           0.0000     WEL_0           
                 DRN =           0.0000                   DRN =           0.0000     DRN_0           
                 RCH = 16688479344.9770                   RCH =    17123859.2124     RCH_0           

            TOTAL IN = 22403295896.9100              TOTAL IN =    45429681.2871

          OUT:                                     OUT:
          ----                                     ----
              STO-SS =           0.0000                STO-SS =           0.0000     STORAGE         
              STO-SY =  4051614592.4429                STO-SY =     4007654.1516     STORAGE         
                 WEL =  2027237011.7462                   WEL =    22924912.5579     WEL_0           
                 DRN = 16324438882.7181                   DRN =    18497051.0711     DRN_0           
                 RCH =           0.0000                   RCH =           0.0000     RCH_0           

           TOTAL OUT = 22403290486.9071             TOTAL OUT =    45429617.7806

            IN - OUT =        5410.0028              IN - OUT =          63.5064

 PERCENT DISCREPANCY =           0.00     PERCENT DISCREPANCY =           0.00




         TIME SUMMARY AT END OF TIME STEP    1 IN STRESS PERIOD  253
                          TIME STEP LENGTH =    1.00000    
                        STRESS PERIOD TIME =    1.00000    
                     TOTAL SIMULATION TIME =    253.000    

end timestep


start timestep kper="254" kstp="1" mode="normal"


 OUTPUT CONTROL FOR STRESS PERIOD 254 IS REPEATED USING SETTINGS FROM A PREVIOUS STRESS PERIOD.


 STRESS PERIOD 254 IS TRANSIENT


 REUSING WELS FROM LAST STRESS PERIOD

 REUSING DRNS FROM LAST STRESS PERIOD

 REUSING RCHS FROM LAST STRESS PERIOD


  VOLUME BUDGET FOR ENTIRE MODEL AT END OF TIME STEP    1, STRESS PERIOD 254
  ---------------------------------------------------------------------------------------------------

     CUMULATIVE VOLUME      L**3       RATES FOR THIS TIME STEP      L**3/T          PACKAGE NAME    
     ------------------                 ------------------------                     ----------------

           IN:                                      IN:
           ---                                      ---
              STO-SS =           0.0000                STO-SS =           0.0000     STORAGE         
              STO-SY =  5733632241.9227                STO-SY =    18815689.9898     STORAGE         
                 WEL =           0.0000                   WEL =           0.0000     WEL_0           
                 DRN =           0.0000                   DRN =           0.0000     DRN_0           
                 RCH = 16699268454.9878                   RCH =    10789110.0108     RCH_0           

            TOTAL IN = 22432900696.9105              TOTAL IN =    29604800.0006

          OUT:                                     OUT:
          ----                                     ----
              STO-SS =           0.0000                STO-SS =           0.0000     STORAGE         
              STO-SY =  4055122782.3653                STO-SY =     3508189.9224     STORAGE         
                 WEL =  2033707474.8219                   WEL =     6470463.0757     WEL_0           
                 DRN = 16344065031.3603                   DRN =    19626148.6423     DRN_0           
                 RCH =           0.0000                   RCH =           0.0000     RCH_0           

           TOTAL OUT = 22432895288.5475             TOTAL OUT =    29604801.6404

            IN - OUT =        5408.3630              IN - OUT =          -1.6398

 PERCENT DISCREPANCY =           0.00     PERCENT DISCREPANCY =          -0.00




         TIME SUMMARY AT END OF TIME STEP    1 IN STRESS PERIOD  254
                          TIME STEP LENGTH =    1.00000    
                        STRESS PERIOD TIME =    1.00000    
                     TOTAL SIMULATION TIME =    254.000    

end timestep


start timestep kper="255" kstp="1" mode="normal"


 OUTPUT CONTROL FOR STRESS PERIOD 255 IS REPEATED USING SETTINGS FROM A PREVIOUS STRESS PERIOD.


 STRESS PERIOD 255 IS TRANSIENT


 REUSING WELS FROM LAST STRESS PERIOD

 REUSING DRNS FROM LAST STRESS PERIOD

 REUSING RCHS FROM LAST STRESS PERIOD


  VOLUME BUDGET FOR ENTIRE MODEL AT END OF TIME STEP    1, STRESS PERIOD 255
  ---------------------------------------------------------------------------------------------------

     CUMULATIVE VOLUME      L**3       RATES FOR THIS TIME STEP      L**3/T          PACKAGE NAME    
     ------------------                 ------------------------                     ----------------

           IN:                                      IN:
           ---                                      ---
              STO-SS =           0.0000                STO-SS =           0.0000     STORAGE         
              STO-SY =  5758748812.8864                STO-SY =    25116570.9637     STORAGE         
                 WEL =           0.0000                   WEL =           0.0000     WEL_0           
                 DRN =           0.0000                   DRN =           0.0000     DRN_0           
                 RCH = 16715705511.6189                   RCH =    16437056.6310     RCH_0           

            TOTAL IN = 22474454324.5053              TOTAL IN =    41553627.5947

          OUT:                                     OUT:
          ----                                     ----
              STO-SS =           0.0000                STO-SS =           0.0000     STORAGE         
              STO-SY =  4059219091.5085                STO-SY =     4096309.1432     STORAGE         
                 WEL =  2052513000.9914                   WEL =    18805526.1696     WEL_0           
                 DRN = 16362716760.7656                   DRN =    18651729.4053     DRN_0           
                 RCH =           0.0000                   RCH =           0.0000     RCH_0           

           TOTAL OUT = 22474448853.2656             TOTAL OUT =    41553564.7181

            IN - OUT =        5471.2397              IN - OUT =          62.8766

 PERCENT DISCREPANCY =           0.00     PERCENT DISCREPANCY =           0.00




         TIME SUMMARY AT END OF TIME STEP    1 IN STRESS PERIOD  255
                          TIME STEP LENGTH =    1.00000    
                        STRESS PERIOD TIME =    1.00000    
                     TOTAL SIMULATION TIME =    255.000    

end timestep


start timestep kper="256" kstp="1" mode="normal"


 OUTPUT CONTROL FOR STRESS PERIOD 256 IS REPEATED USING SETTINGS FROM A PREVIOUS STRESS PERIOD.


 STRESS PERIOD 256 IS TRANSIENT


 REUSING WELS FROM LAST STRESS PERIOD

 REUSING DRNS FROM LAST STRESS PERIOD

 REUSING RCHS FROM LAST STRESS PERIOD


  VOLUME BUDGET FOR ENTIRE MODEL AT END OF TIME STEP    1, STRESS PERIOD 256
  ---------------------------------------------------------------------------------------------------

     CUMULATIVE VOLUME      L**3       RATES FOR THIS TIME STEP      L**3/T          PACKAGE NAME    
     ------------------                 ------------------------                     ----------------

           IN:                                      IN:
           ---                                      ---
              STO-SS =           0.0000                STO-SS =           0.0000     STORAGE         
              STO-SY =  5796195813.4836                STO-SY =    37447000.5972     STORAGE         
                 WEL =           0.0000                   WEL =           0.0000     WEL_0           
                 DRN =           0.0000                   DRN =           0.0000     DRN_0           
                 RCH = 16742145940.4448                   RCH =    26440428.8259     RCH_0           

            TOTAL IN = 22538341753.9283              TOTAL IN =    63887429.4231

          OUT:                                     OUT:
          ----                                     ----
              STO-SS =           0.0000                STO-SS =           0.0000     STORAGE         
              STO-SY =  4064223917.7470                STO-SY =     5004826.2384     STORAGE         
                 WEL =  2090056320.7264                   WEL =    37543319.7350     WEL_0           
                 DRN = 16384056032.2030                   DRN =    21339271.4373     DRN_0           
                 RCH =           0.0000                   RCH =           0.0000     RCH_0           

           TOTAL OUT = 22538336270.6763             TOTAL OUT =    63887417.4108

            IN - OUT =        5483.2520              IN - OUT =          12.0123

 PERCENT DISCREPANCY =           0.00     PERCENT DISCREPANCY =           0.00




         TIME SUMMARY AT END OF TIME STEP    1 IN STRESS PERIOD  256
                          TIME STEP LENGTH =    1.00000    
                        STRESS PERIOD TIME =    1.00000    
                     TOTAL SIMULATION TIME =    256.000    

end timestep


start timestep kper="257" kstp="1" mode="normal"


 OUTPUT CONTROL FOR STRESS PERIOD 257 IS REPEATED USING SETTINGS FROM A PREVIOUS STRESS PERIOD.


 STRESS PERIOD 257 IS TRANSIENT


 REUSING WELS FROM LAST STRESS PERIOD

 REUSING DRNS FROM LAST STRESS PERIOD

 REUSING RCHS FROM LAST STRESS PERIOD


  VOLUME BUDGET FOR ENTIRE MODEL AT END OF TIME STEP    1, STRESS PERIOD 257
  ---------------------------------------------------------------------------------------------------

     CUMULATIVE VOLUME      L**3       RATES FOR THIS TIME STEP      L**3/T          PACKAGE NAME    
     ------------------                 ------------------------                     ----------------

           IN:                                      IN:
           ---                                      ---
              STO-SS =           0.0000                STO-SS =           0.0000     STORAGE         
              STO-SY =  5815665478.6354                STO-SY =    19469665.1518     STORAGE         
                 WEL =           0.0000                   WEL =           0.0000     WEL_0           
                 DRN =           0.0000                   DRN =           0.0000     DRN_0           
                 RCH = 16753299234.9610                   RCH =    11153294.5162     RCH_0           

            TOTAL IN = 22568964713.5964              TOTAL IN =    30622959.6680

          OUT:                                     OUT:
          ----                                     ----
              STO-SS =           0.0000                STO-SS =           0.0000     STORAGE         
              STO-SY =  4068321472.6707                STO-SY =     4097554.9238     STORAGE         
                 WEL =  2097783515.9968                   WEL =     7727195.2705     WEL_0           
                 DRN = 16402854239.5477                   DRN =    18798207.3448     DRN_0           
                 RCH =           0.0000                   RCH =           0.0000     RCH_0           

           TOTAL OUT = 22568959228.2153             TOTAL OUT =    30622957.5390

            IN - OUT =        5485.3810              IN - OUT =           2.1290

 PERCENT DISCREPANCY =           0.00     PERCENT DISCREPANCY =           0.00




         TIME SUMMARY AT END OF TIME STEP    1 IN STRESS PERIOD  257
                          TIME STEP LENGTH =    1.00000    
                        STRESS PERIOD TIME =    1.00000    
                     TOTAL SIMULATION TIME =    257.000    

end timestep


start timestep kper="258" kstp="1" mode="normal"


 OUTPUT CONTROL FOR STRESS PERIOD 258 IS REPEATED USING SETTINGS FROM A PREVIOUS STRESS PERIOD.


 STRESS PERIOD 258 IS TRANSIENT


 REUSING WELS FROM LAST STRESS PERIOD

 REUSING DRNS FROM LAST STRESS PERIOD

 REUSING RCHS FROM LAST STRESS PERIOD


  VOLUME BUDGET FOR ENTIRE MODEL AT END OF TIME STEP    1, STRESS PERIOD 258
  ---------------------------------------------------------------------------------------------------

     CUMULATIVE VOLUME      L**3       RATES FOR THIS TIME STEP      L**3/T          PACKAGE NAME    
     ------------------                 ------------------------                     ----------------

           IN:                                      IN:
           ---                                      ---
              STO-SS =           0.0000                STO-SS =           0.0000     STORAGE         
              STO-SY =  5834892622.9193                STO-SY =    19227144.2839     STORAGE         
                 WEL =           0.0000                   WEL =           0.0000     WEL_0           
                 DRN =           0.0000                   DRN =           0.0000     DRN_0           
                 RCH = 16765017335.1593                   RCH =    11718100.1983     RCH_0           

            TOTAL IN = 22599909958.0786              TOTAL IN =    30945244.4822

          OUT:                                     OUT:
          ----                                     ----
              STO-SS =           0.0000                STO-SS =           0.0000     STORAGE         
              STO-SY =  4071713601.3107                STO-SY =     3392128.6399     STORAGE         
                 WEL =  2105467336.9588                   WEL =     7683820.9619     WEL_0           
                 DRN = 16422723540.4123                   DRN =    19869300.8646     DRN_0           
                 RCH =           0.0000                   RCH =           0.0000     RCH_0           

           TOTAL OUT = 22599904478.6817             TOTAL OUT =    30945250.4664

            IN - OUT =        5479.3968              IN - OUT =          -5.9842

 PERCENT DISCREPANCY =           0.00     PERCENT DISCREPANCY =          -0.00




         TIME SUMMARY AT END OF TIME STEP    1 IN STRESS PERIOD  258
                          TIME STEP LENGTH =    1.00000    
                        STRESS PERIOD TIME =    1.00000    
                     TOTAL SIMULATION TIME =    258.000    

end timestep


start timestep kper="259" kstp="1" mode="normal"


 OUTPUT CONTROL FOR STRESS PERIOD 259 IS REPEATED USING SETTINGS FROM A PREVIOUS STRESS PERIOD.


 STRESS PERIOD 259 IS TRANSIENT


 REUSING WELS FROM LAST STRESS PERIOD

 REUSING DRNS FROM LAST STRESS PERIOD

 REUSING RCHS FROM LAST STRESS PERIOD


  VOLUME BUDGET FOR ENTIRE MODEL AT END OF TIME STEP    1, STRESS PERIOD 259
  ---------------------------------------------------------------------------------------------------

     CUMULATIVE VOLUME      L**3       RATES FOR THIS TIME STEP      L**3/T          PACKAGE NAME    
     ------------------                 ------------------------                     ----------------

           IN:                                      IN:
           ---                                      ---
              STO-SS =           0.0000                STO-SS =           0.0000     STORAGE         
              STO-SY =  5877264805.9626                STO-SY =    42372183.0433     STORAGE         
                 WEL =           0.0000                   WEL =           0.0000     WEL_0           
                 DRN =           0.0000                   DRN =           0.0000     DRN_0           
                 RCH = 16794695756.3075                   RCH =    29678421.1482     RCH_0           

            TOTAL IN = 22671960562.2701              TOTAL IN =    72050604.1915

          OUT:                                     OUT:
          ----                                     ----
              STO-SS =           0.0000                STO-SS =           0.0000     STORAGE         
              STO-SY =  4077613766.3729                STO-SY =     5900165.0622     STORAGE         
                 WEL =  2151179383.5148                   WEL =    45712046.5560     WEL_0           
                 DRN = 16443161934.5288                   DRN =    20438394.1165     DRN_0           
                 RCH =           0.0000                   RCH =           0.0000     RCH_0           

           TOTAL OUT = 22671955084.4165             TOTAL OUT =    72050605.7347

            IN - OUT =        5477.8536              IN - OUT =          -1.5432

 PERCENT DISCREPANCY =           0.00     PERCENT DISCREPANCY =          -0.00




         TIME SUMMARY AT END OF TIME STEP    1 IN STRESS PERIOD  259
                          TIME STEP LENGTH =    1.00000    
                        STRESS PERIOD TIME =    1.00000    
                     TOTAL SIMULATION TIME =    259.000    

end timestep


start timestep kper="260" kstp="1" mode="normal"


 OUTPUT CONTROL FOR STRESS PERIOD 260 IS REPEATED USING SETTINGS FROM A PREVIOUS STRESS PERIOD.


 STRESS PERIOD 260 IS TRANSIENT


 REUSING WELS FROM LAST STRESS PERIOD

 REUSING DRNS FROM LAST STRESS PERIOD

 REUSING RCHS FROM LAST STRESS PERIOD


  VOLUME BUDGET FOR ENTIRE MODEL AT END OF TIME STEP    1, STRESS PERIOD 260
  ---------------------------------------------------------------------------------------------------

     CUMULATIVE VOLUME      L**3       RATES FOR THIS TIME STEP      L**3/T          PACKAGE NAME    
     ------------------                 ------------------------                     ----------------

           IN:                                      IN:
           ---                                      ---
              STO-SS =           0.0000                STO-SS =           0.0000     STORAGE         
              STO-SY =  5917565340.9804                STO-SY =    40300535.0178     STORAGE         
                 WEL =           0.0000                   WEL =           0.0000     WEL_0           
                 DRN =           0.0000                   DRN =           0.0000     DRN_0           
                 RCH = 16823338213.8325                   RCH =    28642457.5250     RCH_0           

            TOTAL IN = 22740903554.8129              TOTAL IN =    68942992.5428

          OUT:                                     OUT:
          ----                                     ----
              STO-SS =           0.0000                STO-SS =           0.0000     STORAGE         
              STO-SY =  4082790214.8532                STO-SY =     5176448.4803     STORAGE         
                 WEL =  2194679714.5512                   WEL =    43500331.0364     WEL_0           
                 DRN = 16463428139.3809                   DRN =    20266204.8521     DRN_0           
                 RCH =           0.0000                   RCH =           0.0000     RCH_0           

           TOTAL OUT = 22740898068.7853             TOTAL OUT =    68942984.3688

            IN - OUT =        5486.0276              IN - OUT =           8.1740

 PERCENT DISCREPANCY =           0.00     PERCENT DISCREPANCY =           0.00




         TIME SUMMARY AT END OF TIME STEP    1 IN STRESS PERIOD  260
                          TIME STEP LENGTH =    1.00000    
                        STRESS PERIOD TIME =    1.00000    
                     TOTAL SIMULATION TIME =    260.000    

end timestep


start timestep kper="261" kstp="1" mode="normal"


 OUTPUT CONTROL FOR STRESS PERIOD 261 IS REPEATED USING SETTINGS FROM A PREVIOUS STRESS PERIOD.


 STRESS PERIOD 261 IS TRANSIENT


 REUSING WELS FROM LAST STRESS PERIOD

 REUSING DRNS FROM LAST STRESS PERIOD

 REUSING RCHS FROM LAST STRESS PERIOD


  VOLUME BUDGET FOR ENTIRE MODEL AT END OF TIME STEP    1, STRESS PERIOD 261
  ---------------------------------------------------------------------------------------------------

     CUMULATIVE VOLUME      L**3       RATES FOR THIS TIME STEP      L**3/T          PACKAGE NAME    
     ------------------                 ------------------------                     ----------------

           IN:                                      IN:
           ---                                      ---
              STO-SS =           0.0000                STO-SS =           0.0000     STORAGE         
              STO-SY =  5936599821.0634                STO-SY =    19034480.0830     STORAGE         
                 WEL =           0.0000                   WEL =           0.0000     WEL_0           
                 DRN =           0.0000                   DRN =           0.0000     DRN_0           
                 RCH = 16834234806.8421                   RCH =    10896593.0096     RCH_0           

            TOTAL IN = 22770834627.9055              TOTAL IN =    29931073.0926

          OUT:                                     OUT:
          ----                                     ----
              STO-SS =           0.0000                STO-SS =           0.0000     STORAGE         
              STO-SY =  4086700187.1348                STO-SY =     3909972.2816     STORAGE         
                 WEL =  2203682732.9717                   WEL =     9003018.4205     WEL_0           
                 DRN = 16480446193.5228                   DRN =    17018054.1419     DRN_0           
                 RCH =           0.0000                   RCH =           0.0000     RCH_0           

           TOTAL OUT = 22770829113.6293             TOTAL OUT =    29931044.8441

            IN - OUT =        5514.2762              IN - OUT =          28.2486

 PERCENT DISCREPANCY =           0.00     PERCENT DISCREPANCY =           0.00




         TIME SUMMARY AT END OF TIME STEP    1 IN STRESS PERIOD  261
                          TIME STEP LENGTH =    1.00000    
                        STRESS PERIOD TIME =    1.00000    
                     TOTAL SIMULATION TIME =    261.000    

end timestep


start timestep kper="262" kstp="1" mode="normal"


 OUTPUT CONTROL FOR STRESS PERIOD 262 IS REPEATED USING SETTINGS FROM A PREVIOUS STRESS PERIOD.


 STRESS PERIOD 262 IS TRANSIENT


 REUSING WELS FROM LAST STRESS PERIOD

 REUSING DRNS FROM LAST STRESS PERIOD

 REUSING RCHS FROM LAST STRESS PERIOD


  VOLUME BUDGET FOR ENTIRE MODEL AT END OF TIME STEP    1, STRESS PERIOD 262
  ---------------------------------------------------------------------------------------------------

     CUMULATIVE VOLUME      L**3       RATES FOR THIS TIME STEP      L**3/T          PACKAGE NAME    
     ------------------                 ------------------------                     ----------------

           IN:                                      IN:
           ---                                      ---
              STO-SS =           0.0000                STO-SS =           0.0000     STORAGE         
              STO-SY =  5957751860.0564                STO-SY =    21152038.9930     STORAGE         
                 WEL =           0.0000                   WEL =           0.0000     WEL_0           
                 DRN =           0.0000                   DRN =           0.0000     DRN_0           
                 RCH = 16848149895.0220                   RCH =    13915088.1800     RCH_0           

            TOTAL IN = 22805901755.0784              TOTAL IN =    35067127.1729

          OUT:                                     OUT:
          ----                                     ----
              STO-SS =           0.0000                STO-SS =           0.0000     STORAGE         
              STO-SY =  4090191706.5454                STO-SY =     3491519.4106     STORAGE         
                 WEL =  2216438124.4963                   WEL =    12755391.5246     WEL_0           
                 DRN = 16499266362.7716                   DRN =    18820169.2487     DRN_0           
                 RCH =           0.0000                   RCH =           0.0000     RCH_0           

           TOTAL OUT = 22805896193.8133             TOTAL OUT =    35067080.1839

            IN - OUT =        5561.2652              IN - OUT =          46.9890

 PERCENT DISCREPANCY =           0.00     PERCENT DISCREPANCY =           0.00




         TIME SUMMARY AT END OF TIME STEP    1 IN STRESS PERIOD  262
                          TIME STEP LENGTH =    1.00000    
                        STRESS PERIOD TIME =    1.00000    
                     TOTAL SIMULATION TIME =    262.000    

end timestep


start timestep kper="263" kstp="1" mode="normal"


 OUTPUT CONTROL FOR STRESS PERIOD 263 IS REPEATED USING SETTINGS FROM A PREVIOUS STRESS PERIOD.


 STRESS PERIOD 263 IS TRANSIENT


 REUSING WELS FROM LAST STRESS PERIOD

 REUSING DRNS FROM LAST STRESS PERIOD

 REUSING RCHS FROM LAST STRESS PERIOD


  VOLUME BUDGET FOR ENTIRE MODEL AT END OF TIME STEP    1, STRESS PERIOD 263
  ---------------------------------------------------------------------------------------------------

     CUMULATIVE VOLUME      L**3       RATES FOR THIS TIME STEP      L**3/T          PACKAGE NAME    
     ------------------                 ------------------------                     ----------------

           IN:                                      IN:
           ---                                      ---
              STO-SS =           0.0000                STO-SS =           0.0000     STORAGE         
              STO-SY =  5984497819.9604                STO-SY =    26745959.9041     STORAGE         
                 WEL =           0.0000                   WEL =           0.0000     WEL_0           
                 DRN =           0.0000                   DRN =           0.0000     DRN_0           
                 RCH = 16865170380.2376                   RCH =    17020485.2155     RCH_0           

            TOTAL IN = 22849668200.1980              TOTAL IN =    43766445.1196

          OUT:                                     OUT:
          ----                                     ----
              STO-SS =           0.0000                STO-SS =           0.0000     STORAGE         
              STO-SY =  4093907796.1829                STO-SY =     3716089.6375     STORAGE         
                 WEL =  2239399110.1146                   WEL =    22960985.6183     WEL_0           
                 DRN = 16516355736.2249                   DRN =    17089373.4533     DRN_0           
                 RCH =           0.0000                   RCH =           0.0000     RCH_0           

           TOTAL OUT = 22849662642.5224             TOTAL OUT =    43766448.7091

            IN - OUT =        5557.6756              IN - OUT =          -3.5895

 PERCENT DISCREPANCY =           0.00     PERCENT DISCREPANCY =          -0.00




         TIME SUMMARY AT END OF TIME STEP    1 IN STRESS PERIOD  263
                          TIME STEP LENGTH =    1.00000    
                        STRESS PERIOD TIME =    1.00000    
                     TOTAL SIMULATION TIME =    263.000    

end timestep


start timestep kper="264" kstp="1" mode="normal"


 OUTPUT CONTROL FOR STRESS PERIOD 264 IS REPEATED USING SETTINGS FROM A PREVIOUS STRESS PERIOD.


 STRESS PERIOD 264 IS TRANSIENT


 REUSING WELS FROM LAST STRESS PERIOD

 REUSING DRNS FROM LAST STRESS PERIOD

 REUSING RCHS FROM LAST STRESS PERIOD


  VOLUME BUDGET FOR ENTIRE MODEL AT END OF TIME STEP    1, STRESS PERIOD 264
  ---------------------------------------------------------------------------------------------------

     CUMULATIVE VOLUME      L**3       RATES FOR THIS TIME STEP      L**3/T          PACKAGE NAME    
     ------------------                 ------------------------                     ----------------

           IN:                                      IN:
           ---                                      ---
              STO-SS =           0.0000                STO-SS =           0.0000     STORAGE         
              STO-SY =  6004850560.0036                STO-SY =    20352740.0432     STORAGE         
                 WEL =           0.0000                   WEL =           0.0000     WEL_0           
                 DRN =           0.0000                   DRN =           0.0000     DRN_0           
                 RCH = 16876465494.6501                   RCH =    11295114.4125     RCH_0           

            TOTAL IN = 22881316054.6537              TOTAL IN =    31647854.4557

          OUT:                                     OUT:
          ----                                     ----
              STO-SS =           0.0000                STO-SS =           0.0000     STORAGE         
              STO-SY =  4097218341.2852                STO-SY =     3310545.1023     STORAGE         
                 WEL =  2249457436.0443                   WEL =    10058325.9297     WEL_0           
                 DRN = 16534634725.4145                   DRN =    18278989.1895     DRN_0           
                 RCH =           0.0000                   RCH =           0.0000     RCH_0           

           TOTAL OUT = 22881310502.7440             TOTAL OUT =    31647860.2216

            IN - OUT =        5551.9098              IN - OUT =          -5.7659

 PERCENT DISCREPANCY =           0.00     PERCENT DISCREPANCY =          -0.00




         TIME SUMMARY AT END OF TIME STEP    1 IN STRESS PERIOD  264
                          TIME STEP LENGTH =    1.00000    
                        STRESS PERIOD TIME =    1.00000    
                     TOTAL SIMULATION TIME =    264.000    

end timestep


start timestep kper="265" kstp="1" mode="normal"


 OUTPUT CONTROL FOR STRESS PERIOD 265 IS REPEATED USING SETTINGS FROM A PREVIOUS STRESS PERIOD.


 STRESS PERIOD 265 IS TRANSIENT


 REUSING WELS FROM LAST STRESS PERIOD

 REUSING DRNS FROM LAST STRESS PERIOD

 REUSING RCHS FROM LAST STRESS PERIOD


  VOLUME BUDGET FOR ENTIRE MODEL AT END OF TIME STEP    1, STRESS PERIOD 265
  ---------------------------------------------------------------------------------------------------

     CUMULATIVE VOLUME      L**3       RATES FOR THIS TIME STEP      L**3/T          PACKAGE NAME    
     ------------------                 ------------------------                     ----------------

           IN:                                      IN:
           ---                                      ---
              STO-SS =           0.0000                STO-SS =           0.0000     STORAGE         
              STO-SY =  6041077481.8583                STO-SY =    36226921.8546     STORAGE         
                 WEL =           0.0000                   WEL =           0.0000     WEL_0           
                 DRN =           0.0000                   DRN =           0.0000     DRN_0           
                 RCH = 16901751841.4156                   RCH =    25286346.7655     RCH_0           

            TOTAL IN = 22942829323.2738              TOTAL IN =    61513268.6201

          OUT:                                     OUT:
          ----                                     ----
              STO-SS =           0.0000                STO-SS =           0.0000     STORAGE         
              STO-SY =  4102877788.5265                STO-SY =     5659447.2413     STORAGE         
                 WEL =  2286759650.4950                   WEL =    37302214.4507     WEL_0           
                 DRN = 16553186328.2035                   DRN =    18551602.7890     DRN_0           
                 RCH =           0.0000                   RCH =           0.0000     RCH_0           

           TOTAL OUT = 22942823767.2249             TOTAL OUT =    61513264.4810

            IN - OUT =        5556.0489              IN - OUT =           4.1391

 PERCENT DISCREPANCY =           0.00     PERCENT DISCREPANCY =           0.00




         TIME SUMMARY AT END OF TIME STEP    1 IN STRESS PERIOD  265
                          TIME STEP LENGTH =    1.00000    
                        STRESS PERIOD TIME =    1.00000    
                     TOTAL SIMULATION TIME =    265.000    

end timestep


start timestep kper="266" kstp="1" mode="normal"


 OUTPUT CONTROL FOR STRESS PERIOD 266 IS REPEATED USING SETTINGS FROM A PREVIOUS STRESS PERIOD.


 STRESS PERIOD 266 IS TRANSIENT


 REUSING WELS FROM LAST STRESS PERIOD

 REUSING DRNS FROM LAST STRESS PERIOD

 REUSING RCHS FROM LAST STRESS PERIOD


  VOLUME BUDGET FOR ENTIRE MODEL AT END OF TIME STEP    1, STRESS PERIOD 266
  ---------------------------------------------------------------------------------------------------

     CUMULATIVE VOLUME      L**3       RATES FOR THIS TIME STEP      L**3/T          PACKAGE NAME    
     ------------------                 ------------------------                     ----------------

           IN:                                      IN:
           ---                                      ---
              STO-SS =           0.0000                STO-SS =           0.0000     STORAGE         
              STO-SY =  6064009344.9848                STO-SY =    22931863.1266     STORAGE         
                 WEL =           0.0000                   WEL =           0.0000     WEL_0           
                 DRN =           0.0000                   DRN =           0.0000     DRN_0           
                 RCH = 16915748740.6649                   RCH =    13996899.2493     RCH_0           

            TOTAL IN = 22979758085.6497              TOTAL IN =    36928762.3758

          OUT:                                     OUT:
          ----                                     ----
              STO-SS =           0.0000                STO-SS =           0.0000     STORAGE         
              STO-SY =  4106293013.5129                STO-SY =     3415224.9864     STORAGE         
                 WEL =  2301760356.2836                   WEL =    15000705.7886     WEL_0           
                 DRN = 16571699160.0364                   DRN =    18512831.8329     DRN_0           
                 RCH =           0.0000                   RCH =           0.0000     RCH_0           

           TOTAL OUT = 22979752529.8328             TOTAL OUT =    36928762.6079

            IN - OUT =        5555.8169              IN - OUT =          -0.2320

 PERCENT DISCREPANCY =           0.00     PERCENT DISCREPANCY =          -0.00




         TIME SUMMARY AT END OF TIME STEP    1 IN STRESS PERIOD  266
                          TIME STEP LENGTH =    1.00000    
                        STRESS PERIOD TIME =    1.00000    
                     TOTAL SIMULATION TIME =    266.000    

end timestep


start timestep kper="267" kstp="1" mode="normal"


 OUTPUT CONTROL FOR STRESS PERIOD 267 IS REPEATED USING SETTINGS FROM A PREVIOUS STRESS PERIOD.


 STRESS PERIOD 267 IS TRANSIENT


 REUSING WELS FROM LAST STRESS PERIOD

 REUSING DRNS FROM LAST STRESS PERIOD

 REUSING RCHS FROM LAST STRESS PERIOD


  VOLUME BUDGET FOR ENTIRE MODEL AT END OF TIME STEP    1, STRESS PERIOD 267
  ---------------------------------------------------------------------------------------------------

     CUMULATIVE VOLUME      L**3       RATES FOR THIS TIME STEP      L**3/T          PACKAGE NAME    
     ------------------                 ------------------------                     ----------------

           IN:                                      IN:
           ---                                      ---
              STO-SS =           0.0000                STO-SS =           0.0000     STORAGE         
              STO-SY =  6090774842.9310                STO-SY =    26765497.9462     STORAGE         
                 WEL =           0.0000                   WEL =           0.0000     WEL_0           
                 DRN =           0.0000                   DRN =           0.0000     DRN_0           
                 RCH = 16931800110.5206                   RCH =    16051369.8557     RCH_0           

            TOTAL IN = 23022574953.4516              TOTAL IN =    42816867.8020

          OUT:                                     OUT:
          ----                                     ----
              STO-SS =           0.0000                STO-SS =           0.0000     STORAGE         
              STO-SY =  4110105880.5869                STO-SY =     3812867.0740     STORAGE         
                 WEL =  2324430762.9884                   WEL =    22670406.7048     WEL_0           
                 DRN = 16588032684.8355                   DRN =    16333524.7991     DRN_0           
                 RCH =           0.0000                   RCH =           0.0000     RCH_0           

           TOTAL OUT = 23022569328.4108             TOTAL OUT =    42816798.5779

            IN - OUT =        5625.0409              IN - OUT =          69.2240

 PERCENT DISCREPANCY =           0.00     PERCENT DISCREPANCY =           0.00




         TIME SUMMARY AT END OF TIME STEP    1 IN STRESS PERIOD  267
                          TIME STEP LENGTH =    1.00000    
                        STRESS PERIOD TIME =    1.00000    
                     TOTAL SIMULATION TIME =    267.000    

end timestep


start timestep kper="268" kstp="1" mode="normal"


 OUTPUT CONTROL FOR STRESS PERIOD 268 IS REPEATED USING SETTINGS FROM A PREVIOUS STRESS PERIOD.


 STRESS PERIOD 268 IS TRANSIENT


 REUSING WELS FROM LAST STRESS PERIOD

 REUSING DRNS FROM LAST STRESS PERIOD

 REUSING RCHS FROM LAST STRESS PERIOD


  VOLUME BUDGET FOR ENTIRE MODEL AT END OF TIME STEP    1, STRESS PERIOD 268
  ---------------------------------------------------------------------------------------------------

     CUMULATIVE VOLUME      L**3       RATES FOR THIS TIME STEP      L**3/T          PACKAGE NAME    
     ------------------                 ------------------------                     ----------------

           IN:                                      IN:
           ---                                      ---
              STO-SS =           0.0000                STO-SS =           0.0000     STORAGE         
              STO-SY =  6113335057.8421                STO-SY =    22560214.9111     STORAGE         
                 WEL =           0.0000                   WEL =           0.0000     WEL_0           
                 DRN =           0.0000                   DRN =           0.0000     DRN_0           
                 RCH = 16948495140.2228                   RCH =    16695029.7022     RCH_0           

            TOTAL IN = 23061830198.0649              TOTAL IN =    39255244.6133

          OUT:                                     OUT:
          ----                                     ----
              STO-SS =           0.0000                STO-SS =           0.0000     STORAGE         
              STO-SY =  4114578168.1966                STO-SY =     4472287.6097     STORAGE         
                 WEL =  2340104293.8200                   WEL =    15673530.8316     WEL_0           
                 DRN = 16607142111.8176                   DRN =    19109426.9820     DRN_0           
                 RCH =           0.0000                   RCH =           0.0000     RCH_0           

           TOTAL OUT = 23061824573.8342             TOTAL OUT =    39255245.4234

            IN - OUT =        5624.2307              IN - OUT =          -0.8101

 PERCENT DISCREPANCY =           0.00     PERCENT DISCREPANCY =          -0.00




         TIME SUMMARY AT END OF TIME STEP    1 IN STRESS PERIOD  268
                          TIME STEP LENGTH =    1.00000    
                        STRESS PERIOD TIME =    1.00000    
                     TOTAL SIMULATION TIME =    268.000    

end timestep


start timestep kper="269" kstp="1" mode="normal"


 OUTPUT CONTROL FOR STRESS PERIOD 269 IS REPEATED USING SETTINGS FROM A PREVIOUS STRESS PERIOD.


 STRESS PERIOD 269 IS TRANSIENT


 REUSING WELS FROM LAST STRESS PERIOD

 REUSING DRNS FROM LAST STRESS PERIOD

 REUSING RCHS FROM LAST STRESS PERIOD


  VOLUME BUDGET FOR ENTIRE MODEL AT END OF TIME STEP    1, STRESS PERIOD 269
  ---------------------------------------------------------------------------------------------------

     CUMULATIVE VOLUME      L**3       RATES FOR THIS TIME STEP      L**3/T          PACKAGE NAME    
     ------------------                 ------------------------                     ----------------

           IN:                                      IN:
           ---                                      ---
              STO-SS =           0.0000                STO-SS =           0.0000     STORAGE         
              STO-SY =  6140452403.5069                STO-SY =    27117345.6648     STORAGE         
                 WEL =           0.0000                   WEL =           0.0000     WEL_0           
                 DRN =           0.0000                   DRN =           0.0000     DRN_0           
                 RCH = 16964821846.2032                   RCH =    16326705.9804     RCH_0           

            TOTAL IN = 23105274249.7101              TOTAL IN =    43444051.6452

          OUT:                                     OUT:
          ----                                     ----
              STO-SS =           0.0000                STO-SS =           0.0000     STORAGE         
              STO-SY =  4118179982.9993                STO-SY =     3601814.8027     STORAGE         
                 WEL =  2363566438.7368                   WEL =    23462144.9168     WEL_0           
                 DRN = 16623522203.6299                   DRN =    16380091.8123     DRN_0           
                 RCH =           0.0000                   RCH =           0.0000     RCH_0           

           TOTAL OUT = 23105268625.3660             TOTAL OUT =    43444051.5318

            IN - OUT =        5624.3441              IN - OUT =           0.1134

 PERCENT DISCREPANCY =           0.00     PERCENT DISCREPANCY =           0.00




         TIME SUMMARY AT END OF TIME STEP    1 IN STRESS PERIOD  269
                          TIME STEP LENGTH =    1.00000    
                        STRESS PERIOD TIME =    1.00000    
                     TOTAL SIMULATION TIME =    269.000    

end timestep


start timestep kper="270" kstp="1" mode="normal"


 OUTPUT CONTROL FOR STRESS PERIOD 270 IS REPEATED USING SETTINGS FROM A PREVIOUS STRESS PERIOD.


 STRESS PERIOD 270 IS TRANSIENT


 REUSING WELS FROM LAST STRESS PERIOD

 REUSING DRNS FROM LAST STRESS PERIOD

 REUSING RCHS FROM LAST STRESS PERIOD


  VOLUME BUDGET FOR ENTIRE MODEL AT END OF TIME STEP    1, STRESS PERIOD 270
  ---------------------------------------------------------------------------------------------------

     CUMULATIVE VOLUME      L**3       RATES FOR THIS TIME STEP      L**3/T          PACKAGE NAME    
     ------------------                 ------------------------                     ----------------

           IN:                                      IN:
           ---                                      ---
              STO-SS =           0.0000                STO-SS =           0.0000     STORAGE         
              STO-SY =  6178984537.1814                STO-SY =    38532133.6745     STORAGE         
                 WEL =           0.0000                   WEL =           0.0000     WEL_0           
                 DRN =           0.0000                   DRN =           0.0000     DRN_0           
                 RCH = 16991908917.4532                   RCH =    27087071.2500     RCH_0           

            TOTAL IN = 23170893454.6346              TOTAL IN =    65619204.9245

          OUT:                                     OUT:
          ----                                     ----
              STO-SS =           0.0000                STO-SS =           0.0000     STORAGE         
              STO-SY =  4122782824.0079                STO-SY =     4602841.0086     STORAGE         
                 WEL =  2405589125.9461                   WEL =    42022687.2092     WEL_0           
                 DRN = 16642515860.0919                   DRN =    18993656.4620     DRN_0           
                 RCH =           0.0000                   RCH =           0.0000     RCH_0           

           TOTAL OUT = 23170887810.0459             TOTAL OUT =    65619184.6799

            IN - OUT =        5644.5888              IN - OUT =          20.2446

 PERCENT DISCREPANCY =           0.00     PERCENT DISCREPANCY =           0.00




         TIME SUMMARY AT END OF TIME STEP    1 IN STRESS PERIOD  270
                          TIME STEP LENGTH =    1.00000    
                        STRESS PERIOD TIME =    1.00000    
                     TOTAL SIMULATION TIME =    270.000    

end timestep


start timestep kper="271" kstp="1" mode="normal"


 OUTPUT CONTROL FOR STRESS PERIOD 271 IS REPEATED USING SETTINGS FROM A PREVIOUS STRESS PERIOD.


 STRESS PERIOD 271 IS TRANSIENT


 REUSING WELS FROM LAST STRESS PERIOD

 REUSING DRNS FROM LAST STRESS PERIOD

 REUSING RCHS FROM LAST STRESS PERIOD


  VOLUME BUDGET FOR ENTIRE MODEL AT END OF TIME STEP    1, STRESS PERIOD 271
  ---------------------------------------------------------------------------------------------------

     CUMULATIVE VOLUME      L**3       RATES FOR THIS TIME STEP      L**3/T          PACKAGE NAME    
     ------------------                 ------------------------                     ----------------

           IN:                                      IN:
           ---                                      ---
              STO-SS =           0.0000                STO-SS =           0.0000     STORAGE         
              STO-SY =  6197763975.8018                STO-SY =    18779438.6204     STORAGE         
                 WEL =           0.0000                   WEL =           0.0000     WEL_0           
                 DRN =           0.0000                   DRN =           0.0000     DRN_0           
                 RCH = 17001313180.4552                   RCH =     9404263.0020     RCH_0           

            TOTAL IN = 23199077156.2570              TOTAL IN =    28183701.6224

          OUT:                                     OUT:
          ----                                     ----
              STO-SS =           0.0000                STO-SS =           0.0000     STORAGE         
              STO-SY =  4126469329.8164                STO-SY =     3686505.8085     STORAGE         
                 WEL =  2414394364.4541                   WEL =     8805238.5080     WEL_0           
                 DRN = 16658207816.9767                   DRN =    15691956.8848     DRN_0           
                 RCH =           0.0000                   RCH =           0.0000     RCH_0           

           TOTAL OUT = 23199071511.2471             TOTAL OUT =    28183701.2013

            IN - OUT =        5645.0099              IN - OUT =           0.4211

 PERCENT DISCREPANCY =           0.00     PERCENT DISCREPANCY =           0.00




         TIME SUMMARY AT END OF TIME STEP    1 IN STRESS PERIOD  271
                          TIME STEP LENGTH =    1.00000    
                        STRESS PERIOD TIME =    1.00000    
                     TOTAL SIMULATION TIME =    271.000    

end timestep


start timestep kper="272" kstp="1" mode="normal"


 OUTPUT CONTROL FOR STRESS PERIOD 272 IS REPEATED USING SETTINGS FROM A PREVIOUS STRESS PERIOD.


 STRESS PERIOD 272 IS TRANSIENT


 REUSING WELS FROM LAST STRESS PERIOD

 REUSING DRNS FROM LAST STRESS PERIOD

 REUSING RCHS FROM LAST STRESS PERIOD


  VOLUME BUDGET FOR ENTIRE MODEL AT END OF TIME STEP    1, STRESS PERIOD 272
  ---------------------------------------------------------------------------------------------------

     CUMULATIVE VOLUME      L**3       RATES FOR THIS TIME STEP      L**3/T          PACKAGE NAME    
     ------------------                 ------------------------                     ----------------

           IN:                                      IN:
           ---                                      ---
              STO-SS =           0.0000                STO-SS =           0.0000     STORAGE         
              STO-SY =  6215302886.5187                STO-SY =    17538910.7169     STORAGE         
                 WEL =           0.0000                   WEL =           0.0000     WEL_0           
                 DRN =           0.0000                   DRN =           0.0000     DRN_0           
                 RCH = 17010381805.8475                   RCH =     9068625.3923     RCH_0           

            TOTAL IN = 23225684692.3662              TOTAL IN =    26607536.1092

          OUT:                                     OUT:
          ----                                     ----
              STO-SS =           0.0000                STO-SS =           0.0000     STORAGE         
              STO-SY =  4129737377.8708                STO-SY =     3268048.0545     STORAGE         
                 WEL =  2420547424.4181                   WEL =     6153059.9641     WEL_0           
                 DRN = 16675394165.9676                   DRN =    17186348.9909     DRN_0           
                 RCH =           0.0000                   RCH =           0.0000     RCH_0           

           TOTAL OUT = 23225678968.2565             TOTAL OUT =    26607457.0094

            IN - OUT =        5724.1097              IN - OUT =          79.0998

 PERCENT DISCREPANCY =           0.00     PERCENT DISCREPANCY =           0.00




         TIME SUMMARY AT END OF TIME STEP    1 IN STRESS PERIOD  272
                          TIME STEP LENGTH =    1.00000    
                        STRESS PERIOD TIME =    1.00000    
                     TOTAL SIMULATION TIME =    272.000    

end timestep


start timestep kper="273" kstp="1" mode="normal"


 OUTPUT CONTROL FOR STRESS PERIOD 273 IS REPEATED USING SETTINGS FROM A PREVIOUS STRESS PERIOD.


 STRESS PERIOD 273 IS TRANSIENT


 REUSING WELS FROM LAST STRESS PERIOD

 REUSING DRNS FROM LAST STRESS PERIOD

 REUSING RCHS FROM LAST STRESS PERIOD


  VOLUME BUDGET FOR ENTIRE MODEL AT END OF TIME STEP    1, STRESS PERIOD 273
  ---------------------------------------------------------------------------------------------------

     CUMULATIVE VOLUME      L**3       RATES FOR THIS TIME STEP      L**3/T          PACKAGE NAME    
     ------------------                 ------------------------                     ----------------

           IN:                                      IN:
           ---                                      ---
              STO-SS =           0.0000                STO-SS =           0.0000     STORAGE         
              STO-SY =  6261059307.2794                STO-SY =    45756420.7607     STORAGE         
                 WEL =           0.0000                   WEL =           0.0000     WEL_0           
                 DRN =           0.0000                   DRN =           0.0000     DRN_0           
                 RCH = 17040345397.8316                   RCH =    29963591.9841     RCH_0           

            TOTAL IN = 23301404705.1110              TOTAL IN =    75720012.7448

          OUT:                                     OUT:
          ----                                     ----
              STO-SS =           0.0000                STO-SS =           0.0000     STORAGE         
              STO-SY =  4135074827.1746                STO-SY =     5337449.3038     STORAGE         
                 WEL =  2473699921.6520                   WEL =    53152497.2339     WEL_0           
                 DRN = 16692624234.1458                   DRN =    17230068.1782     DRN_0           
                 RCH =           0.0000                   RCH =           0.0000     RCH_0           

           TOTAL OUT = 23301398982.9724             TOTAL OUT =    75720014.7159

            IN - OUT =        5722.1386              IN - OUT =          -1.9711

 PERCENT DISCREPANCY =           0.00     PERCENT DISCREPANCY =          -0.00




         TIME SUMMARY AT END OF TIME STEP    1 IN STRESS PERIOD  273
                          TIME STEP LENGTH =    1.00000    
                        STRESS PERIOD TIME =    1.00000    
                     TOTAL SIMULATION TIME =    273.000    

end timestep


start timestep kper="274" kstp="1" mode="normal"


 OUTPUT CONTROL FOR STRESS PERIOD 274 IS REPEATED USING SETTINGS FROM A PREVIOUS STRESS PERIOD.


 STRESS PERIOD 274 IS TRANSIENT


 REUSING WELS FROM LAST STRESS PERIOD

 REUSING DRNS FROM LAST STRESS PERIOD

 REUSING RCHS FROM LAST STRESS PERIOD


  VOLUME BUDGET FOR ENTIRE MODEL AT END OF TIME STEP    1, STRESS PERIOD 274
  ---------------------------------------------------------------------------------------------------

     CUMULATIVE VOLUME      L**3       RATES FOR THIS TIME STEP      L**3/T          PACKAGE NAME    
     ------------------                 ------------------------                     ----------------

           IN:                                      IN:
           ---                                      ---
              STO-SS =           0.0000                STO-SS =           0.0000     STORAGE         
              STO-SY =  6290735320.6680                STO-SY =    29676013.3885     STORAGE         
                 WEL =           0.0000                   WEL =           0.0000     WEL_0           
                 DRN =           0.0000                   DRN =           0.0000     DRN_0           
                 RCH = 17059684990.8964                   RCH =    19339593.0648     RCH_0           

            TOTAL IN = 23350420311.5644              TOTAL IN =    49015606.4534

          OUT:                                     OUT:
          ----                                     ----
              STO-SS =           0.0000                STO-SS =           0.0000     STORAGE         
              STO-SY =  4138665485.1637                STO-SY =     3590657.9891     STORAGE         
                 WEL =  2501514199.8110                   WEL =    27814278.1589     WEL_0           
                 DRN = 16710234787.3764                   DRN =    17610553.2307     DRN_0           
                 RCH =           0.0000                   RCH =           0.0000     RCH_0           

           TOTAL OUT = 23350414472.3511             TOTAL OUT =    49015489.3787

            IN - OUT =        5839.2133              IN - OUT =         117.0747

 PERCENT DISCREPANCY =           0.00     PERCENT DISCREPANCY =           0.00




         TIME SUMMARY AT END OF TIME STEP    1 IN STRESS PERIOD  274
                          TIME STEP LENGTH =    1.00000    
                        STRESS PERIOD TIME =    1.00000    
                     TOTAL SIMULATION TIME =    274.000    

end timestep


start timestep kper="275" kstp="1" mode="normal"


 OUTPUT CONTROL FOR STRESS PERIOD 275 IS REPEATED USING SETTINGS FROM A PREVIOUS STRESS PERIOD.


 STRESS PERIOD 275 IS TRANSIENT


 REUSING WELS FROM LAST STRESS PERIOD

 REUSING DRNS FROM LAST STRESS PERIOD

 REUSING RCHS FROM LAST STRESS PERIOD


  VOLUME BUDGET FOR ENTIRE MODEL AT END OF TIME STEP    1, STRESS PERIOD 275
  ---------------------------------------------------------------------------------------------------

     CUMULATIVE VOLUME      L**3       RATES FOR THIS TIME STEP      L**3/T          PACKAGE NAME    
     ------------------                 ------------------------                     ----------------

           IN:                                      IN:
           ---                                      ---
              STO-SS =           0.0000                STO-SS =           0.0000     STORAGE         
              STO-SY =  6307348040.7066                STO-SY =    16612720.0386     STORAGE         
                 WEL =           0.0000                   WEL =           0.0000     WEL_0           
                 DRN =           0.0000                   DRN =           0.0000     DRN_0           
                 RCH = 17071446684.6626                   RCH =    11761693.7662     RCH_0           

            TOTAL IN = 23378794725.3692              TOTAL IN =    28374413.8048

          OUT:                                     OUT:
          ----                                     ----
              STO-SS =           0.0000                STO-SS =           0.0000     STORAGE         
              STO-SY =  4143629027.1546                STO-SY =     4963541.9909     STORAGE         
                 WEL =  2507836737.9090                   WEL =     6322538.0981     WEL_0           
                 DRN = 16727323126.1922                   DRN =    17088338.8158     DRN_0           
                 RCH =           0.0000                   RCH =           0.0000     RCH_0           

           TOTAL OUT = 23378788891.2558             TOTAL OUT =    28374418.9047

            IN - OUT =        5834.1133              IN - OUT =          -5.0999

 PERCENT DISCREPANCY =           0.00     PERCENT DISCREPANCY =          -0.00




         TIME SUMMARY AT END OF TIME STEP    1 IN STRESS PERIOD  275
                          TIME STEP LENGTH =    1.00000    
                        STRESS PERIOD TIME =    1.00000    
                     TOTAL SIMULATION TIME =    275.000    

end timestep


start timestep kper="276" kstp="1" mode="normal"


 OUTPUT CONTROL FOR STRESS PERIOD 276 IS REPEATED USING SETTINGS FROM A PREVIOUS STRESS PERIOD.


 STRESS PERIOD 276 IS TRANSIENT


 REUSING WELS FROM LAST STRESS PERIOD

 REUSING DRNS FROM LAST STRESS PERIOD

 REUSING RCHS FROM LAST STRESS PERIOD


  VOLUME BUDGET FOR ENTIRE MODEL AT END OF TIME STEP    1, STRESS PERIOD 276
  ---------------------------------------------------------------------------------------------------

     CUMULATIVE VOLUME      L**3       RATES FOR THIS TIME STEP      L**3/T          PACKAGE NAME    
     ------------------                 ------------------------                     ----------------

           IN:                                      IN:
           ---                                      ---
              STO-SS =           0.0000                STO-SS =           0.0000     STORAGE         
              STO-SY =  6323892211.2009                STO-SY =    16544170.4944     STORAGE         
                 WEL =           0.0000                   WEL =           0.0000     WEL_0           
                 DRN =           0.0000                   DRN =           0.0000     DRN_0           
                 RCH = 17082198177.8619                   RCH =    10751493.1993     RCH_0           

            TOTAL IN = 23406090389.0628              TOTAL IN =    27295663.6936

          OUT:                                     OUT:
          ----                                     ----
              STO-SS =           0.0000                STO-SS =           0.0000     STORAGE         
              STO-SY =  4147517895.7993                STO-SY =     3888868.6447     STORAGE         
                 WEL =  2513567565.0806                   WEL =     5730827.1716     WEL_0           
                 DRN = 16744999060.9372                   DRN =    17675934.7450     DRN_0           
                 RCH =           0.0000                   RCH =           0.0000     RCH_0           

           TOTAL OUT = 23406084521.8171             TOTAL OUT =    27295630.5613

            IN - OUT =        5867.2457              IN - OUT =          33.1323

 PERCENT DISCREPANCY =           0.00     PERCENT DISCREPANCY =           0.00




         TIME SUMMARY AT END OF TIME STEP    1 IN STRESS PERIOD  276
                          TIME STEP LENGTH =    1.00000    
                        STRESS PERIOD TIME =    1.00000    
                     TOTAL SIMULATION TIME =    276.000    

end timestep


start timestep kper="277" kstp="1" mode="normal"


 OUTPUT CONTROL FOR STRESS PERIOD 277 IS REPEATED USING SETTINGS FROM A PREVIOUS STRESS PERIOD.


 STRESS PERIOD 277 IS TRANSIENT


 REUSING WELS FROM LAST STRESS PERIOD

 REUSING DRNS FROM LAST STRESS PERIOD

 REUSING RCHS FROM LAST STRESS PERIOD


  VOLUME BUDGET FOR ENTIRE MODEL AT END OF TIME STEP    1, STRESS PERIOD 277
  ---------------------------------------------------------------------------------------------------

     CUMULATIVE VOLUME      L**3       RATES FOR THIS TIME STEP      L**3/T          PACKAGE NAME    
     ------------------                 ------------------------                     ----------------

           IN:                                      IN:
           ---                                      ---
              STO-SS =           0.0000                STO-SS =           0.0000     STORAGE         
              STO-SY =  6339558848.2248                STO-SY =    15666637.0238     STORAGE         
                 WEL =           0.0000                   WEL =           0.0000     WEL_0           
                 DRN =           0.0000                   DRN =           0.0000     DRN_0           
                 RCH = 17088922382.1516                   RCH =     6724204.2898     RCH_0           

            TOTAL IN = 23428481230.3764              TOTAL IN =    22390841.3136

          OUT:                                     OUT:
          ----                                     ----
              STO-SS =           0.0000                STO-SS =           0.0000     STORAGE         
              STO-SY =  4150989302.3573                STO-SY =     3471406.5580     STORAGE         
                 WEL =  2516895280.1488                   WEL =     3327715.0682     WEL_0           
                 DRN = 16760590716.3562                   DRN =    15591655.4190     DRN_0           
                 RCH =           0.0000                   RCH =           0.0000     RCH_0           

           TOTAL OUT = 23428475298.8623             TOTAL OUT =    22390777.0451

            IN - OUT =        5931.5141              IN - OUT =          64.2685

 PERCENT DISCREPANCY =           0.00     PERCENT DISCREPANCY =           0.00




         TIME SUMMARY AT END OF TIME STEP    1 IN STRESS PERIOD  277
                          TIME STEP LENGTH =    1.00000    
                        STRESS PERIOD TIME =    1.00000    
                     TOTAL SIMULATION TIME =    277.000    

end timestep


start timestep kper="278" kstp="1" mode="normal"


 OUTPUT CONTROL FOR STRESS PERIOD 278 IS REPEATED USING SETTINGS FROM A PREVIOUS STRESS PERIOD.


 STRESS PERIOD 278 IS TRANSIENT


 REUSING WELS FROM LAST STRESS PERIOD

 REUSING DRNS FROM LAST STRESS PERIOD

 REUSING RCHS FROM LAST STRESS PERIOD


  VOLUME BUDGET FOR ENTIRE MODEL AT END OF TIME STEP    1, STRESS PERIOD 278
  ---------------------------------------------------------------------------------------------------

     CUMULATIVE VOLUME      L**3       RATES FOR THIS TIME STEP      L**3/T          PACKAGE NAME    
     ------------------                 ------------------------                     ----------------

           IN:                                      IN:
           ---                                      ---
              STO-SS =           0.0000                STO-SS =           0.0000     STORAGE         
              STO-SY =  6356839219.0522                STO-SY =    17280370.8275     STORAGE         
                 WEL =           0.0000                   WEL =           0.0000     WEL_0           
                 DRN =           0.0000                   DRN =           0.0000     DRN_0           
                 RCH = 17100672677.2198                   RCH =    11750295.0682     RCH_0           

            TOTAL IN = 23457511896.2721              TOTAL IN =    29030665.8956

          OUT:                                     OUT:
          ----                                     ----
              STO-SS =           0.0000                STO-SS =           0.0000     STORAGE         
              STO-SY =  4154855188.8388                STO-SY =     3865886.4815     STORAGE         
                 WEL =  2524622958.0725                   WEL =     7727677.9237     WEL_0           
                 DRN = 16778027820.6234                   DRN =    17437104.2672     DRN_0           
                 RCH =           0.0000                   RCH =           0.0000     RCH_0           

           TOTAL OUT = 23457505967.5347             TOTAL OUT =    29030668.6724

            IN - OUT =        5928.7374              IN - OUT =          -2.7768

 PERCENT DISCREPANCY =           0.00     PERCENT DISCREPANCY =          -0.00




         TIME SUMMARY AT END OF TIME STEP    1 IN STRESS PERIOD  278
                          TIME STEP LENGTH =    1.00000    
                        STRESS PERIOD TIME =    1.00000    
                     TOTAL SIMULATION TIME =    278.000    

end timestep


start timestep kper="279" kstp="1" mode="normal"


 OUTPUT CONTROL FOR STRESS PERIOD 279 IS REPEATED USING SETTINGS FROM A PREVIOUS STRESS PERIOD.


 STRESS PERIOD 279 IS TRANSIENT


 REUSING WELS FROM LAST STRESS PERIOD

 REUSING DRNS FROM LAST STRESS PERIOD

 REUSING RCHS FROM LAST STRESS PERIOD


  VOLUME BUDGET FOR ENTIRE MODEL AT END OF TIME STEP    1, STRESS PERIOD 279
  ---------------------------------------------------------------------------------------------------

     CUMULATIVE VOLUME      L**3       RATES FOR THIS TIME STEP      L**3/T          PACKAGE NAME    
     ------------------                 ------------------------                     ----------------

           IN:                                      IN:
           ---                                      ---
              STO-SS =           0.0000                STO-SS =           0.0000     STORAGE         
              STO-SY =  6372488671.0610                STO-SY =    15649452.0087     STORAGE         
                 WEL =           0.0000                   WEL =           0.0000     WEL_0           
                 DRN =           0.0000                   DRN =           0.0000     DRN_0           
                 RCH = 17107126689.0138                   RCH =     6454011.7939     RCH_0           

            TOTAL IN = 23479615360.0747              TOTAL IN =    22103463.8027

          OUT:                                     OUT:
          ----                                     ----
              STO-SS =           0.0000                STO-SS =           0.0000     STORAGE         
              STO-SY =  4158083601.3082                STO-SY =     3228412.4694     STORAGE         
                 WEL =  2527983723.5872                   WEL =     3360765.5147     WEL_0           
                 DRN = 16793542042.5354                   DRN =    15514221.9121     DRN_0           
                 RCH =           0.0000                   RCH =           0.0000     RCH_0           

           TOTAL OUT = 23479609367.4309             TOTAL OUT =    22103399.8962

            IN - OUT =        5992.6438              IN - OUT =          63.9065

 PERCENT DISCREPANCY =           0.00     PERCENT DISCREPANCY =           0.00




         TIME SUMMARY AT END OF TIME STEP    1 IN STRESS PERIOD  279
                          TIME STEP LENGTH =    1.00000    
                        STRESS PERIOD TIME =    1.00000    
                     TOTAL SIMULATION TIME =    279.000    

end timestep


start timestep kper="280" kstp="1" mode="normal"


 OUTPUT CONTROL FOR STRESS PERIOD 280 IS REPEATED USING SETTINGS FROM A PREVIOUS STRESS PERIOD.


 STRESS PERIOD 280 IS TRANSIENT


 REUSING WELS FROM LAST STRESS PERIOD

 REUSING DRNS FROM LAST STRESS PERIOD

 REUSING RCHS FROM LAST STRESS PERIOD


  VOLUME BUDGET FOR ENTIRE MODEL AT END OF TIME STEP    1, STRESS PERIOD 280
  ---------------------------------------------------------------------------------------------------

     CUMULATIVE VOLUME      L**3       RATES FOR THIS TIME STEP      L**3/T          PACKAGE NAME    
     ------------------                 ------------------------                     ----------------

           IN:                                      IN:
           ---                                      ---
              STO-SS =           0.0000                STO-SS =           0.0000     STORAGE         
              STO-SY =  6390542536.5616                STO-SY =    18053865.5006     STORAGE         
                 WEL =           0.0000                   WEL =           0.0000     WEL_0           
                 DRN =           0.0000                   DRN =           0.0000     DRN_0           
                 RCH = 17120354439.0560                   RCH =    13227750.0422     RCH_0           

            TOTAL IN = 23510896975.6176              TOTAL IN =    31281615.5429

          OUT:                                     OUT:
          ----                                     ----
              STO-SS =           0.0000                STO-SS =           0.0000     STORAGE         
              STO-SY =  4162025463.1962                STO-SY =     3941861.8880     STORAGE         
                 WEL =  2537749281.0952                   WEL =     9765557.5080     WEL_0           
                 DRN = 16811116185.8850                   DRN =    17574143.3496     DRN_0           
                 RCH =           0.0000                   RCH =           0.0000     RCH_0           

           TOTAL OUT = 23510890930.1765             TOTAL OUT =    31281562.7456

            IN - OUT =        6045.4412              IN - OUT =          52.7973

 PERCENT DISCREPANCY =           0.00     PERCENT DISCREPANCY =           0.00




         TIME SUMMARY AT END OF TIME STEP    1 IN STRESS PERIOD  280
                          TIME STEP LENGTH =    1.00000    
                        STRESS PERIOD TIME =    1.00000    
                     TOTAL SIMULATION TIME =    280.000    

end timestep


start timestep kper="281" kstp="1" mode="normal"


 OUTPUT CONTROL FOR STRESS PERIOD 281 IS REPEATED USING SETTINGS FROM A PREVIOUS STRESS PERIOD.


 STRESS PERIOD 281 IS TRANSIENT


 REUSING WELS FROM LAST STRESS PERIOD

 REUSING DRNS FROM LAST STRESS PERIOD

 REUSING RCHS FROM LAST STRESS PERIOD


  VOLUME BUDGET FOR ENTIRE MODEL AT END OF TIME STEP    1, STRESS PERIOD 281
  ---------------------------------------------------------------------------------------------------

     CUMULATIVE VOLUME      L**3       RATES FOR THIS TIME STEP      L**3/T          PACKAGE NAME    
     ------------------                 ------------------------                     ----------------

           IN:                                      IN:
           ---                                      ---
              STO-SS =           0.0000                STO-SS =           0.0000     STORAGE         
              STO-SY =  6407728439.1464                STO-SY =    17185902.5848     STORAGE         
                 WEL =           0.0000                   WEL =           0.0000     WEL_0           
                 DRN =           0.0000                   DRN =           0.0000     DRN_0           
                 RCH = 17130242453.4306                   RCH =     9888014.3746     RCH_0           

            TOTAL IN = 23537970892.5770              TOTAL IN =    27073916.9594

          OUT:                                     OUT:
          ----                                     ----
              STO-SS =           0.0000                STO-SS =           0.0000     STORAGE         
              STO-SY =  4165590126.1963                STO-SY =     3564663.0001     STORAGE         
                 WEL =  2545684066.4624                   WEL =     7934785.3672     WEL_0           
                 DRN = 16826690608.7691                   DRN =    15574422.8841     DRN_0           
                 RCH =           0.0000                   RCH =           0.0000     RCH_0           

           TOTAL OUT = 23537964801.4279             TOTAL OUT =    27073871.2514

            IN - OUT =        6091.1491              IN - OUT =          45.7079

 PERCENT DISCREPANCY =           0.00     PERCENT DISCREPANCY =           0.00




         TIME SUMMARY AT END OF TIME STEP    1 IN STRESS PERIOD  281
                          TIME STEP LENGTH =    1.00000    
                        STRESS PERIOD TIME =    1.00000    
                     TOTAL SIMULATION TIME =    281.000    

end timestep


start timestep kper="282" kstp="1" mode="normal"


 OUTPUT CONTROL FOR STRESS PERIOD 282 IS REPEATED USING SETTINGS FROM A PREVIOUS STRESS PERIOD.


 STRESS PERIOD 282 IS TRANSIENT


 REUSING WELS FROM LAST STRESS PERIOD

 REUSING DRNS FROM LAST STRESS PERIOD

 REUSING RCHS FROM LAST STRESS PERIOD


  VOLUME BUDGET FOR ENTIRE MODEL AT END OF TIME STEP    1, STRESS PERIOD 282
  ---------------------------------------------------------------------------------------------------

     CUMULATIVE VOLUME      L**3       RATES FOR THIS TIME STEP      L**3/T          PACKAGE NAME    
     ------------------                 ------------------------                     ----------------

           IN:                                      IN:
           ---                                      ---
              STO-SS =           0.0000                STO-SS =           0.0000     STORAGE         
              STO-SY =  6423830522.5289                STO-SY =    16102083.3825     STORAGE         
                 WEL =           0.0000                   WEL =           0.0000     WEL_0           
                 DRN =           0.0000                   DRN =           0.0000     DRN_0           
                 RCH = 17140594414.4495                   RCH =    10351961.0189     RCH_0           

            TOTAL IN = 23564424936.9784              TOTAL IN =    26454044.4014

          OUT:                                     OUT:
          ----                                     ----
              STO-SS =           0.0000                STO-SS =           0.0000     STORAGE         
              STO-SY =  4169092606.6083                STO-SY =     3502480.4119     STORAGE         
                 WEL =  2551515429.7649                   WEL =     5831363.3025     WEL_0           
                 DRN = 16843810803.0466                   DRN =    17120194.2774     DRN_0           
                 RCH =           0.0000                   RCH =           0.0000     RCH_0           

           TOTAL OUT = 23564418839.4197             TOTAL OUT =    26454037.9918

            IN - OUT =        6097.5587              IN - OUT =           6.4096

 PERCENT DISCREPANCY =           0.00     PERCENT DISCREPANCY =           0.00




         TIME SUMMARY AT END OF TIME STEP    1 IN STRESS PERIOD  282
                          TIME STEP LENGTH =    1.00000    
                        STRESS PERIOD TIME =    1.00000    
                     TOTAL SIMULATION TIME =    282.000    

end timestep


start timestep kper="283" kstp="1" mode="normal"


 OUTPUT CONTROL FOR STRESS PERIOD 283 IS REPEATED USING SETTINGS FROM A PREVIOUS STRESS PERIOD.


 STRESS PERIOD 283 IS TRANSIENT


 REUSING WELS FROM LAST STRESS PERIOD

 REUSING DRNS FROM LAST STRESS PERIOD

 REUSING RCHS FROM LAST STRESS PERIOD


  VOLUME BUDGET FOR ENTIRE MODEL AT END OF TIME STEP    1, STRESS PERIOD 283
  ---------------------------------------------------------------------------------------------------

     CUMULATIVE VOLUME      L**3       RATES FOR THIS TIME STEP      L**3/T          PACKAGE NAME    
     ------------------                 ------------------------                     ----------------

           IN:                                      IN:
           ---                                      ---
              STO-SS =           0.0000                STO-SS =           0.0000     STORAGE         
              STO-SY =  6439148395.1641                STO-SY =    15317872.6351     STORAGE         
                 WEL =           0.0000                   WEL =           0.0000     WEL_0           
                 DRN =           0.0000                   DRN =           0.0000     DRN_0           
                 RCH = 17146101581.3460                   RCH =     5507166.8965     RCH_0           

            TOTAL IN = 23585249976.5101              TOTAL IN =    20825039.5317

          OUT:                                     OUT:
          ----                                     ----
              STO-SS =           0.0000                STO-SS =           0.0000     STORAGE         
              STO-SY =  4171977694.4097                STO-SY =     2885087.8014     STORAGE         
                 WEL =  2554414950.2880                   WEL =     2899520.5232     WEL_0           
                 DRN = 16858851235.9239                   DRN =    15040432.8774     DRN_0           
                 RCH =           0.0000                   RCH =           0.0000     RCH_0           

           TOTAL OUT = 23585243880.6216             TOTAL OUT =    20825041.2019

            IN - OUT =        6095.8885              IN - OUT =          -1.6702

 PERCENT DISCREPANCY =           0.00     PERCENT DISCREPANCY =          -0.00




         TIME SUMMARY AT END OF TIME STEP    1 IN STRESS PERIOD  283
                          TIME STEP LENGTH =    1.00000    
                        STRESS PERIOD TIME =    1.00000    
                     TOTAL SIMULATION TIME =    283.000    

end timestep


start timestep kper="284" kstp="1" mode="normal"


 OUTPUT CONTROL FOR STRESS PERIOD 284 IS REPEATED USING SETTINGS FROM A PREVIOUS STRESS PERIOD.


 STRESS PERIOD 284 IS TRANSIENT


 REUSING WELS FROM LAST STRESS PERIOD

 REUSING DRNS FROM LAST STRESS PERIOD

 REUSING RCHS FROM LAST STRESS PERIOD


  VOLUME BUDGET FOR ENTIRE MODEL AT END OF TIME STEP    1, STRESS PERIOD 284
  ---------------------------------------------------------------------------------------------------

     CUMULATIVE VOLUME      L**3       RATES FOR THIS TIME STEP      L**3/T          PACKAGE NAME    
     ------------------                 ------------------------                     ----------------

           IN:                                      IN:
           ---                                      ---
              STO-SS =           0.0000                STO-SS =           0.0000     STORAGE         
              STO-SY =  6455525873.5848                STO-SY =    16377478.4207     STORAGE         
                 WEL =           0.0000                   WEL =           0.0000     WEL_0           
                 DRN =           0.0000                   DRN =           0.0000     DRN_0           
                 RCH = 17156938305.9316                   RCH =    10836724.5856     RCH_0           

            TOTAL IN = 23612464179.5164              TOTAL IN =    27214203.0063

          OUT:                                     OUT:
          ----                                     ----
              STO-SS =           0.0000                STO-SS =           0.0000     STORAGE         
              STO-SY =  4175543704.6022                STO-SY =     3566010.1925     STORAGE         
                 WEL =  2561458519.1377                   WEL =     7043568.8497     WEL_0           
                 DRN = 16875455846.4791                   DRN =    16604610.5552     DRN_0           
                 RCH =           0.0000                   RCH =           0.0000     RCH_0           

           TOTAL OUT = 23612458070.2191             TOTAL OUT =    27214189.5975

            IN - OUT =        6109.2973              IN - OUT =          13.4088

 PERCENT DISCREPANCY =           0.00     PERCENT DISCREPANCY =           0.00




         TIME SUMMARY AT END OF TIME STEP    1 IN STRESS PERIOD  284
                          TIME STEP LENGTH =    1.00000    
                        STRESS PERIOD TIME =    1.00000    
                     TOTAL SIMULATION TIME =    284.000    

end timestep


start timestep kper="285" kstp="1" mode="normal"


 OUTPUT CONTROL FOR STRESS PERIOD 285 IS REPEATED USING SETTINGS FROM A PREVIOUS STRESS PERIOD.


 STRESS PERIOD 285 IS TRANSIENT


 REUSING WELS FROM LAST STRESS PERIOD

 REUSING DRNS FROM LAST STRESS PERIOD

 REUSING RCHS FROM LAST STRESS PERIOD


  VOLUME BUDGET FOR ENTIRE MODEL AT END OF TIME STEP    1, STRESS PERIOD 285
  ---------------------------------------------------------------------------------------------------

     CUMULATIVE VOLUME      L**3       RATES FOR THIS TIME STEP      L**3/T          PACKAGE NAME    
     ------------------                 ------------------------                     ----------------

           IN:                                      IN:
           ---                                      ---
              STO-SS =           0.0000                STO-SS =           0.0000     STORAGE         
              STO-SY =  6478819087.8238                STO-SY =    23293214.2390     STORAGE         
                 WEL =           0.0000                   WEL =           0.0000     WEL_0           
                 DRN =           0.0000                   DRN =           0.0000     DRN_0           
                 RCH = 17173298360.3810                   RCH =    16360054.4495     RCH_0           

            TOTAL IN = 23652117448.2049              TOTAL IN =    39653268.6885

          OUT:                                     OUT:
          ----                                     ----
              STO-SS =           0.0000                STO-SS =           0.0000     STORAGE         
              STO-SY =  4180404771.5715                STO-SY =     4861066.9693     STORAGE         
                 WEL =  2580565425.4486                   WEL =    19106906.3108     WEL_0           
                 DRN = 16891141127.1232                   DRN =    15685280.6440     DRN_0           
                 RCH =           0.0000                   RCH =           0.0000     RCH_0           

           TOTAL OUT = 23652111324.1433             TOTAL OUT =    39653253.9242

            IN - OUT =        6124.0616              IN - OUT =          14.7643

 PERCENT DISCREPANCY =           0.00     PERCENT DISCREPANCY =           0.00




         TIME SUMMARY AT END OF TIME STEP    1 IN STRESS PERIOD  285
                          TIME STEP LENGTH =    1.00000    
                        STRESS PERIOD TIME =    1.00000    
                     TOTAL SIMULATION TIME =    285.000    

end timestep


start timestep kper="286" kstp="1" mode="normal"


 OUTPUT CONTROL FOR STRESS PERIOD 286 IS REPEATED USING SETTINGS FROM A PREVIOUS STRESS PERIOD.


 STRESS PERIOD 286 IS TRANSIENT


 REUSING WELS FROM LAST STRESS PERIOD

 REUSING DRNS FROM LAST STRESS PERIOD

 REUSING RCHS FROM LAST STRESS PERIOD


  VOLUME BUDGET FOR ENTIRE MODEL AT END OF TIME STEP    1, STRESS PERIOD 286
  ---------------------------------------------------------------------------------------------------

     CUMULATIVE VOLUME      L**3       RATES FOR THIS TIME STEP      L**3/T          PACKAGE NAME    
     ------------------                 ------------------------                     ----------------

           IN:                                      IN:
           ---                                      ---
              STO-SS =           0.0000                STO-SS =           0.0000     STORAGE         
              STO-SY =  6494811762.5025                STO-SY =    15992674.6786     STORAGE         
                 WEL =           0.0000                   WEL =           0.0000     WEL_0           
                 DRN =           0.0000                   DRN =           0.0000     DRN_0           
                 RCH = 17182121546.9514                   RCH =     8823186.5703     RCH_0           

            TOTAL IN = 23676933309.4539              TOTAL IN =    24815861.2490

          OUT:                                     OUT:
          ----                                     ----
              STO-SS =           0.0000                STO-SS =           0.0000     STORAGE         
              STO-SY =  4183536039.1018                STO-SY =     3131267.5303     STORAGE         
                 WEL =  2586269484.7760                   WEL =     5704059.3275     WEL_0           
                 DRN = 16907121647.6890                   DRN =    15980520.5658     DRN_0           
                 RCH =           0.0000                   RCH =           0.0000     RCH_0           

           TOTAL OUT = 23676927171.5669             TOTAL OUT =    24815847.4236

            IN - OUT =        6137.8870              IN - OUT =          13.8254

 PERCENT DISCREPANCY =           0.00     PERCENT DISCREPANCY =           0.00




         TIME SUMMARY AT END OF TIME STEP    1 IN STRESS PERIOD  286
                          TIME STEP LENGTH =    1.00000    
                        STRESS PERIOD TIME =    1.00000    
                     TOTAL SIMULATION TIME =    286.000    

end timestep


start timestep kper="287" kstp="1" mode="normal"


 OUTPUT CONTROL FOR STRESS PERIOD 287 IS REPEATED USING SETTINGS FROM A PREVIOUS STRESS PERIOD.


 STRESS PERIOD 287 IS TRANSIENT


 REUSING WELS FROM LAST STRESS PERIOD

 REUSING DRNS FROM LAST STRESS PERIOD

 REUSING RCHS FROM LAST STRESS PERIOD


  VOLUME BUDGET FOR ENTIRE MODEL AT END OF TIME STEP    1, STRESS PERIOD 287
  ---------------------------------------------------------------------------------------------------

     CUMULATIVE VOLUME      L**3       RATES FOR THIS TIME STEP      L**3/T          PACKAGE NAME    
     ------------------                 ------------------------                     ----------------

           IN:                                      IN:
           ---                                      ---
              STO-SS =           0.0000                STO-SS =           0.0000     STORAGE         
              STO-SY =  6514442453.9346                STO-SY =    19630691.4322     STORAGE         
                 WEL =           0.0000                   WEL =           0.0000     WEL_0           
                 DRN =           0.0000                   DRN =           0.0000     DRN_0           
                 RCH = 17197249063.9645                   RCH =    15127517.0131     RCH_0           

            TOTAL IN = 23711691517.8991              TOTAL IN =    34758208.4452

          OUT:                                     OUT:
          ----                                     ----
              STO-SS =           0.0000                STO-SS =           0.0000     STORAGE         
              STO-SY =  4187951926.6723                STO-SY =     4415887.5705     STORAGE         
                 WEL =  2600311776.2849                   WEL =    14042291.5089     WEL_0           
                 DRN = 16923421676.9148                   DRN =    16300029.2258     DRN_0           
                 RCH =           0.0000                   RCH =           0.0000     RCH_0           

           TOTAL OUT = 23711685379.8720             TOTAL OUT =    34758208.3052

            IN - OUT =        6138.0271              IN - OUT =           0.1401

 PERCENT DISCREPANCY =           0.00     PERCENT DISCREPANCY =           0.00




         TIME SUMMARY AT END OF TIME STEP    1 IN STRESS PERIOD  287
                          TIME STEP LENGTH =    1.00000    
                        STRESS PERIOD TIME =    1.00000    
                     TOTAL SIMULATION TIME =    287.000    

end timestep


start timestep kper="288" kstp="1" mode="normal"


 OUTPUT CONTROL FOR STRESS PERIOD 288 IS REPEATED USING SETTINGS FROM A PREVIOUS STRESS PERIOD.


 STRESS PERIOD 288 IS TRANSIENT


 REUSING WELS FROM LAST STRESS PERIOD

 REUSING DRNS FROM LAST STRESS PERIOD

 REUSING RCHS FROM LAST STRESS PERIOD


  VOLUME BUDGET FOR ENTIRE MODEL AT END OF TIME STEP    1, STRESS PERIOD 288
  ---------------------------------------------------------------------------------------------------

     CUMULATIVE VOLUME      L**3       RATES FOR THIS TIME STEP      L**3/T          PACKAGE NAME    
     ------------------                 ------------------------                     ----------------

           IN:                                      IN:
           ---                                      ---
              STO-SS =           0.0000                STO-SS =           0.0000     STORAGE         
              STO-SY =  6531357980.5755                STO-SY =    16915526.6408     STORAGE         
                 WEL =           0.0000                   WEL =           0.0000     WEL_0           
                 DRN =           0.0000                   DRN =           0.0000     DRN_0           
                 RCH = 17208376909.3914                   RCH =    11127845.4270     RCH_0           

            TOTAL IN = 23739734889.9669              TOTAL IN =    28043372.0678

          OUT:                                     OUT:
          ----                                     ----
              STO-SS =           0.0000                STO-SS =           0.0000     STORAGE         
              STO-SY =  4191484836.8313                STO-SY =     3532910.1589     STORAGE         
                 WEL =  2608464555.5863                   WEL =     8152779.3014     WEL_0           
                 DRN = 16939779337.4847                   DRN =    16357660.5699     DRN_0           
                 RCH =           0.0000                   RCH =           0.0000     RCH_0           

           TOTAL OUT = 23739728729.9023             TOTAL OUT =    28043350.0302

            IN - OUT =        6160.0647              IN - OUT =          22.0376

 PERCENT DISCREPANCY =           0.00     PERCENT DISCREPANCY =           0.00




         TIME SUMMARY AT END OF TIME STEP    1 IN STRESS PERIOD  288
                          TIME STEP LENGTH =    1.00000    
                        STRESS PERIOD TIME =    1.00000    
                     TOTAL SIMULATION TIME =    288.000    

end timestep


start timestep kper="289" kstp="1" mode="normal"


 OUTPUT CONTROL FOR STRESS PERIOD 289 IS REPEATED USING SETTINGS FROM A PREVIOUS STRESS PERIOD.


 STRESS PERIOD 289 IS TRANSIENT


 REUSING WELS FROM LAST STRESS PERIOD

 REUSING DRNS FROM LAST STRESS PERIOD

 REUSING RCHS FROM LAST STRESS PERIOD


  VOLUME BUDGET FOR ENTIRE MODEL AT END OF TIME STEP    1, STRESS PERIOD 289
  ---------------------------------------------------------------------------------------------------

     CUMULATIVE VOLUME      L**3       RATES FOR THIS TIME STEP      L**3/T          PACKAGE NAME    
     ------------------                 ------------------------                     ----------------

           IN:                                      IN:
           ---                                      ---
              STO-SS =           0.0000                STO-SS =           0.0000     STORAGE         
              STO-SY =  6546343543.5042                STO-SY =    14985562.9287     STORAGE         
                 WEL =           0.0000                   WEL =           0.0000     WEL_0           
                 DRN =           0.0000                   DRN =           0.0000     DRN_0           
                 RCH = 17214602241.8351                   RCH =     6225332.4436     RCH_0           

            TOTAL IN = 23760945785.3392              TOTAL IN =    21210895.3723

          OUT:                                     OUT:
          ----                                     ----
              STO-SS =           0.0000                STO-SS =           0.0000     STORAGE         
              STO-SY =  4194227641.8576                STO-SY =     2742805.0263     STORAGE         
                 WEL =  2612591666.4991                   WEL =     4127110.9128     WEL_0           
                 DRN = 16954120300.1246                   DRN =    14340962.6399     DRN_0           
                 RCH =           0.0000                   RCH =           0.0000     RCH_0           

           TOTAL OUT = 23760939608.4813             TOTAL OUT =    21210878.5790

            IN - OUT =        6176.8579              IN - OUT =          16.7933

 PERCENT DISCREPANCY =           0.00     PERCENT DISCREPANCY =           0.00




         TIME SUMMARY AT END OF TIME STEP    1 IN STRESS PERIOD  289
                          TIME STEP LENGTH =    1.00000    
                        STRESS PERIOD TIME =    1.00000    
                     TOTAL SIMULATION TIME =    289.000    

end timestep


start timestep kper="290" kstp="1" mode="normal"


 OUTPUT CONTROL FOR STRESS PERIOD 290 IS REPEATED USING SETTINGS FROM A PREVIOUS STRESS PERIOD.


 STRESS PERIOD 290 IS TRANSIENT


 REUSING WELS FROM LAST STRESS PERIOD

 REUSING DRNS FROM LAST STRESS PERIOD

 REUSING RCHS FROM LAST STRESS PERIOD


  VOLUME BUDGET FOR ENTIRE MODEL AT END OF TIME STEP    1, STRESS PERIOD 290
  ---------------------------------------------------------------------------------------------------

     CUMULATIVE VOLUME      L**3       RATES FOR THIS TIME STEP      L**3/T          PACKAGE NAME    
     ------------------                 ------------------------                     ----------------

           IN:                                      IN:
           ---                                      ---
              STO-SS =           0.0000                STO-SS =           0.0000     STORAGE         
              STO-SY =  6561442733.3646                STO-SY =    15099189.8605     STORAGE         
                 WEL =           0.0000                   WEL =           0.0000     WEL_0           
                 DRN =           0.0000                   DRN =           0.0000     DRN_0           
                 RCH = 17224224556.2412                   RCH =     9622314.4061     RCH_0           

            TOTAL IN = 23785667289.6058              TOTAL IN =    24721504.2666

          OUT:                                     OUT:
          ----                                     ----
              STO-SS =           0.0000                STO-SS =           0.0000     STORAGE         
              STO-SY =  4197209691.2436                STO-SY =     2982049.3860     STORAGE         
                 WEL =  2618559723.0793                   WEL =     5968056.5801     WEL_0           
                 DRN = 16969891698.4656                   DRN =    15771398.3411     DRN_0           
                 RCH =           0.0000                   RCH =           0.0000     RCH_0           

           TOTAL OUT = 23785661112.7885             TOTAL OUT =    24721504.3072

            IN - OUT =        6176.8174              IN - OUT =      -4.0557E-02

 PERCENT DISCREPANCY =           0.00     PERCENT DISCREPANCY =          -0.00




         TIME SUMMARY AT END OF TIME STEP    1 IN STRESS PERIOD  290
                          TIME STEP LENGTH =    1.00000    
                        STRESS PERIOD TIME =    1.00000    
                     TOTAL SIMULATION TIME =    290.000    

end timestep


start timestep kper="291" kstp="1" mode="normal"


 OUTPUT CONTROL FOR STRESS PERIOD 291 IS REPEATED USING SETTINGS FROM A PREVIOUS STRESS PERIOD.


 STRESS PERIOD 291 IS TRANSIENT


 REUSING WELS FROM LAST STRESS PERIOD

 REUSING DRNS FROM LAST STRESS PERIOD

 REUSING RCHS FROM LAST STRESS PERIOD


  VOLUME BUDGET FOR ENTIRE MODEL AT END OF TIME STEP    1, STRESS PERIOD 291
  ---------------------------------------------------------------------------------------------------

     CUMULATIVE VOLUME      L**3       RATES FOR THIS TIME STEP      L**3/T          PACKAGE NAME    
     ------------------                 ------------------------                     ----------------

           IN:                                      IN:
           ---                                      ---
              STO-SS =           0.0000                STO-SS =           0.0000     STORAGE         
              STO-SY =  6582350730.4170                STO-SY =    20907997.0523     STORAGE         
                 WEL =           0.0000                   WEL =           0.0000     WEL_0           
                 DRN =           0.0000                   DRN =           0.0000     DRN_0           
                 RCH = 17239707396.7683                   RCH =    15482840.5271     RCH_0           

            TOTAL IN = 23822058127.1853              TOTAL IN =    36390837.5795

          OUT:                                     OUT:
          ----                                     ----
              STO-SS =           0.0000                STO-SS =           0.0000     STORAGE         
              STO-SY =  4201965109.1679                STO-SY =     4755417.9244     STORAGE         
                 WEL =  2634770115.1214                   WEL =    16210392.0421     WEL_0           
                 DRN = 16985316714.2513                   DRN =    15425015.7856     DRN_0           
                 RCH =           0.0000                   RCH =           0.0000     RCH_0           

           TOTAL OUT = 23822051938.5406             TOTAL OUT =    36390825.7521

            IN - OUT =        6188.6448              IN - OUT =          11.8274

 PERCENT DISCREPANCY =           0.00     PERCENT DISCREPANCY =           0.00




         TIME SUMMARY AT END OF TIME STEP    1 IN STRESS PERIOD  291
                          TIME STEP LENGTH =    1.00000    
                        STRESS PERIOD TIME =    1.00000    
                     TOTAL SIMULATION TIME =    291.000    

end timestep


start timestep kper="292" kstp="1" mode="normal"


 OUTPUT CONTROL FOR STRESS PERIOD 292 IS REPEATED USING SETTINGS FROM A PREVIOUS STRESS PERIOD.


 STRESS PERIOD 292 IS TRANSIENT


 REUSING WELS FROM LAST STRESS PERIOD

 REUSING DRNS FROM LAST STRESS PERIOD

 REUSING RCHS FROM LAST STRESS PERIOD


  VOLUME BUDGET FOR ENTIRE MODEL AT END OF TIME STEP    1, STRESS PERIOD 292
  ---------------------------------------------------------------------------------------------------

     CUMULATIVE VOLUME      L**3       RATES FOR THIS TIME STEP      L**3/T          PACKAGE NAME    
     ------------------                 ------------------------                     ----------------

           IN:                                      IN:
           ---                                      ---
              STO-SS =           0.0000                STO-SS =           0.0000     STORAGE         
              STO-SY =  6605562915.6769                STO-SY =    23212185.2599     STORAGE         
                 WEL =           0.0000                   WEL =           0.0000     WEL_0           
                 DRN =           0.0000                   DRN =           0.0000     DRN_0           
                 RCH = 17256977664.0395                   RCH =    17270267.2712     RCH_0           

            TOTAL IN = 23862540579.7164              TOTAL IN =    40482452.5310

          OUT:                                     OUT:
          ----                                     ----
              STO-SS =           0.0000                STO-SS =           0.0000     STORAGE         
              STO-SY =  4206030688.0938                STO-SY =     4065578.9258     STORAGE         
                 WEL =  2655309953.8452                   WEL =    20539838.7239     WEL_0           
                 DRN = 17001193671.6586                   DRN =    15876957.4074     DRN_0           
                 RCH =           0.0000                   RCH =           0.0000     RCH_0           

           TOTAL OUT = 23862534313.5976             TOTAL OUT =    40482375.0571

            IN - OUT =        6266.1187              IN - OUT =          77.4740

 PERCENT DISCREPANCY =           0.00     PERCENT DISCREPANCY =           0.00




         TIME SUMMARY AT END OF TIME STEP    1 IN STRESS PERIOD  292
                          TIME STEP LENGTH =    1.00000    
                        STRESS PERIOD TIME =    1.00000    
                     TOTAL SIMULATION TIME =    292.000    

end timestep


start timestep kper="293" kstp="1" mode="normal"


 OUTPUT CONTROL FOR STRESS PERIOD 293 IS REPEATED USING SETTINGS FROM A PREVIOUS STRESS PERIOD.


 STRESS PERIOD 293 IS TRANSIENT


 REUSING WELS FROM LAST STRESS PERIOD

 REUSING DRNS FROM LAST STRESS PERIOD

 REUSING RCHS FROM LAST STRESS PERIOD


  VOLUME BUDGET FOR ENTIRE MODEL AT END OF TIME STEP    1, STRESS PERIOD 293
  ---------------------------------------------------------------------------------------------------

     CUMULATIVE VOLUME      L**3       RATES FOR THIS TIME STEP      L**3/T          PACKAGE NAME    
     ------------------                 ------------------------                     ----------------

           IN:                                      IN:
           ---                                      ---
              STO-SS =           0.0000                STO-SS =           0.0000     STORAGE         
              STO-SY =  6621106697.1728                STO-SY =    15543781.4960     STORAGE         
                 WEL =           0.0000                   WEL =           0.0000     WEL_0           
                 DRN =           0.0000                   DRN =           0.0000     DRN_0           
                 RCH = 17268179751.6758                   RCH =    11202087.6363     RCH_0           

            TOTAL IN = 23889286448.8486              TOTAL IN =    26745869.1322

          OUT:                                     OUT:
          ----                                     ----
              STO-SS =           0.0000                STO-SS =           0.0000     STORAGE         
              STO-SY =  4209797269.9569                STO-SY =     3766581.8631     STORAGE         
                 WEL =  2663313047.5708                   WEL =     8003093.7255     WEL_0           
                 DRN = 17016169859.3515                   DRN =    14976187.6929     DRN_0           
                 RCH =           0.0000                   RCH =           0.0000     RCH_0           

           TOTAL OUT = 23889280176.8791             TOTAL OUT =    26745863.2815

            IN - OUT =        6271.9694              IN - OUT =           5.8507

 PERCENT DISCREPANCY =           0.00     PERCENT DISCREPANCY =           0.00




         TIME SUMMARY AT END OF TIME STEP    1 IN STRESS PERIOD  293
                          TIME STEP LENGTH =    1.00000    
                        STRESS PERIOD TIME =    1.00000    
                     TOTAL SIMULATION TIME =    293.000    

end timestep


start timestep kper="294" kstp="1" mode="normal"


 OUTPUT CONTROL FOR STRESS PERIOD 294 IS REPEATED USING SETTINGS FROM A PREVIOUS STRESS PERIOD.


 STRESS PERIOD 294 IS TRANSIENT


 REUSING WELS FROM LAST STRESS PERIOD

 REUSING DRNS FROM LAST STRESS PERIOD

 REUSING RCHS FROM LAST STRESS PERIOD


  VOLUME BUDGET FOR ENTIRE MODEL AT END OF TIME STEP    1, STRESS PERIOD 294
  ---------------------------------------------------------------------------------------------------

     CUMULATIVE VOLUME      L**3       RATES FOR THIS TIME STEP      L**3/T          PACKAGE NAME    
     ------------------                 ------------------------                     ----------------

           IN:                                      IN:
           ---                                      ---
              STO-SS =           0.0000                STO-SS =           0.0000     STORAGE         
              STO-SY =  6638340220.1033                STO-SY =    17233522.9304     STORAGE         
                 WEL =           0.0000                   WEL =           0.0000     WEL_0           
                 DRN =           0.0000                   DRN =           0.0000     DRN_0           
                 RCH = 17282165334.3025                   RCH =    13985582.6268     RCH_0           

            TOTAL IN = 23920505554.4058              TOTAL IN =    31219105.5572

          OUT:                                     OUT:
          ----                                     ----
              STO-SS =           0.0000                STO-SS =           0.0000     STORAGE         
              STO-SY =  4213506217.9029                STO-SY =     3708947.9460     STORAGE         
                 WEL =  2674529974.6577                   WEL =    11216927.0870     WEL_0           
                 DRN = 17032463091.8505                   DRN =    16293232.4990     DRN_0           
                 RCH =           0.0000                   RCH =           0.0000     RCH_0           

           TOTAL OUT = 23920499284.4111             TOTAL OUT =    31219107.5320

            IN - OUT =        6269.9947              IN - OUT =          -1.9747

 PERCENT DISCREPANCY =           0.00     PERCENT DISCREPANCY =          -0.00




         TIME SUMMARY AT END OF TIME STEP    1 IN STRESS PERIOD  294
                          TIME STEP LENGTH =    1.00000    
                        STRESS PERIOD TIME =    1.00000    
                     TOTAL SIMULATION TIME =    294.000    

end timestep


start timestep kper="295" kstp="1" mode="normal"


 OUTPUT CONTROL FOR STRESS PERIOD 295 IS REPEATED USING SETTINGS FROM A PREVIOUS STRESS PERIOD.


 STRESS PERIOD 295 IS TRANSIENT


 REUSING WELS FROM LAST STRESS PERIOD

 REUSING DRNS FROM LAST STRESS PERIOD

 REUSING RCHS FROM LAST STRESS PERIOD


  VOLUME BUDGET FOR ENTIRE MODEL AT END OF TIME STEP    1, STRESS PERIOD 295
  ---------------------------------------------------------------------------------------------------

     CUMULATIVE VOLUME      L**3       RATES FOR THIS TIME STEP      L**3/T          PACKAGE NAME    
     ------------------                 ------------------------                     ----------------

           IN:                                      IN:
           ---                                      ---
              STO-SS =           0.0000                STO-SS =           0.0000     STORAGE         
              STO-SY =  6654688539.6478                STO-SY =    16348319.5445     STORAGE         
                 WEL =           0.0000                   WEL =           0.0000     WEL_0           
                 DRN =           0.0000                   DRN =           0.0000     DRN_0           
                 RCH = 17293242295.5130                   RCH =    11076961.2104     RCH_0           

            TOTAL IN = 23947930835.1608              TOTAL IN =    27425280.7550

          OUT:                                     OUT:
          ----                                     ----
              STO-SS =           0.0000                STO-SS =           0.0000     STORAGE         
              STO-SY =  4216935278.5006                STO-SY =     3429060.5977     STORAGE         
                 WEL =  2683582735.7993                   WEL =     9052761.1415     WEL_0           
                 DRN = 17047406538.6834                   DRN =    14943446.8329     DRN_0           
                 RCH =           0.0000                   RCH =           0.0000     RCH_0           

           TOTAL OUT = 23947924552.9833             TOTAL OUT =    27425268.5722

            IN - OUT =        6282.1775              IN - OUT =          12.1828

 PERCENT DISCREPANCY =           0.00     PERCENT DISCREPANCY =           0.00




         TIME SUMMARY AT END OF TIME STEP    1 IN STRESS PERIOD  295
                          TIME STEP LENGTH =    1.00000    
                        STRESS PERIOD TIME =    1.00000    
                     TOTAL SIMULATION TIME =    295.000    

end timestep


start timestep kper="296" kstp="1" mode="normal"


 OUTPUT CONTROL FOR STRESS PERIOD 296 IS REPEATED USING SETTINGS FROM A PREVIOUS STRESS PERIOD.


 STRESS PERIOD 296 IS TRANSIENT


 REUSING WELS FROM LAST STRESS PERIOD

 REUSING DRNS FROM LAST STRESS PERIOD

 REUSING RCHS FROM LAST STRESS PERIOD


  VOLUME BUDGET FOR ENTIRE MODEL AT END OF TIME STEP    1, STRESS PERIOD 296
  ---------------------------------------------------------------------------------------------------

     CUMULATIVE VOLUME      L**3       RATES FOR THIS TIME STEP      L**3/T          PACKAGE NAME    
     ------------------                 ------------------------                     ----------------

           IN:                                      IN:
           ---                                      ---
              STO-SS =           0.0000                STO-SS =           0.0000     STORAGE         
              STO-SY =  6682882896.6456                STO-SY =    28194356.9978     STORAGE         
                 WEL =           0.0000                   WEL =           0.0000     WEL_0           
                 DRN =           0.0000                   DRN =           0.0000     DRN_0           
                 RCH = 17311577515.0013                   RCH =    18335219.4884     RCH_0           

            TOTAL IN = 23994460411.6470              TOTAL IN =    46529576.4862

          OUT:                                     OUT:
          ----                                     ----
              STO-SS =           0.0000                STO-SS =           0.0000     STORAGE         
              STO-SY =  4220570895.6661                STO-SY =     3635617.1655     STORAGE         
                 WEL =  2710854476.7399                   WEL =    27271740.9407     WEL_0           
                 DRN = 17063028742.0177                   DRN =    15622203.3343     DRN_0           
                 RCH =           0.0000                   RCH =           0.0000     RCH_0           

           TOTAL OUT = 23994454114.4237             TOTAL OUT =    46529561.4405

            IN - OUT =        6297.2232              IN - OUT =          15.0457

 PERCENT DISCREPANCY =           0.00     PERCENT DISCREPANCY =           0.00




         TIME SUMMARY AT END OF TIME STEP    1 IN STRESS PERIOD  296
                          TIME STEP LENGTH =    1.00000    
                        STRESS PERIOD TIME =    1.00000    
                     TOTAL SIMULATION TIME =    296.000    

end timestep


start timestep kper="297" kstp="1" mode="normal"


 OUTPUT CONTROL FOR STRESS PERIOD 297 IS REPEATED USING SETTINGS FROM A PREVIOUS STRESS PERIOD.


 STRESS PERIOD 297 IS TRANSIENT


 REUSING WELS FROM LAST STRESS PERIOD

 REUSING DRNS FROM LAST STRESS PERIOD

 REUSING RCHS FROM LAST STRESS PERIOD


  VOLUME BUDGET FOR ENTIRE MODEL AT END OF TIME STEP    1, STRESS PERIOD 297
  ---------------------------------------------------------------------------------------------------

     CUMULATIVE VOLUME      L**3       RATES FOR THIS TIME STEP      L**3/T          PACKAGE NAME    
     ------------------                 ------------------------                     ----------------

           IN:                                      IN:
           ---                                      ---
              STO-SS =           0.0000                STO-SS =           0.0000     STORAGE         
              STO-SY =  6705281839.3563                STO-SY =    22398942.7106     STORAGE         
                 WEL =           0.0000                   WEL =           0.0000     WEL_0           
                 DRN =           0.0000                   DRN =           0.0000     DRN_0           
                 RCH = 17327497214.1975                   RCH =    15919699.1961     RCH_0           

            TOTAL IN = 24032779053.5537              TOTAL IN =    38318641.9068

          OUT:                                     OUT:
          ----                                     ----
              STO-SS =           0.0000                STO-SS =           0.0000     STORAGE         
              STO-SY =  4224545470.6787                STO-SY =     3974575.0126     STORAGE         
                 WEL =  2730661683.1097                   WEL =    19807206.3697     WEL_0           
                 DRN = 17077565573.0646                   DRN =    14536831.0469     DRN_0           
                 RCH =           0.0000                   RCH =           0.0000     RCH_0           

           TOTAL OUT = 24032772726.8530             TOTAL OUT =    38318612.4292

            IN - OUT =        6326.7008              IN - OUT =          29.4775

 PERCENT DISCREPANCY =           0.00     PERCENT DISCREPANCY =           0.00




         TIME SUMMARY AT END OF TIME STEP    1 IN STRESS PERIOD  297
                          TIME STEP LENGTH =    1.00000    
                        STRESS PERIOD TIME =    1.00000    
                     TOTAL SIMULATION TIME =    297.000    

end timestep


start timestep kper="298" kstp="1" mode="normal"


 OUTPUT CONTROL FOR STRESS PERIOD 298 IS REPEATED USING SETTINGS FROM A PREVIOUS STRESS PERIOD.


 STRESS PERIOD 298 IS TRANSIENT


 REUSING WELS FROM LAST STRESS PERIOD

 REUSING DRNS FROM LAST STRESS PERIOD

 REUSING RCHS FROM LAST STRESS PERIOD


  VOLUME BUDGET FOR ENTIRE MODEL AT END OF TIME STEP    1, STRESS PERIOD 298
  ---------------------------------------------------------------------------------------------------

     CUMULATIVE VOLUME      L**3       RATES FOR THIS TIME STEP      L**3/T          PACKAGE NAME    
     ------------------                 ------------------------                     ----------------

           IN:                                      IN:
           ---                                      ---
              STO-SS =           0.0000                STO-SS =           0.0000     STORAGE         
              STO-SY =  6720181932.3823                STO-SY =    14900093.0261     STORAGE         
                 WEL =           0.0000                   WEL =           0.0000     WEL_0           
                 DRN =           0.0000                   DRN =           0.0000     DRN_0           
                 RCH = 17337652582.4832                   RCH =    10155368.2857     RCH_0           

            TOTAL IN = 24057834514.8655              TOTAL IN =    25055461.3117

          OUT:                                     OUT:
          ----                                     ----
              STO-SS =           0.0000                STO-SS =           0.0000     STORAGE         
              STO-SY =  4227925539.7707                STO-SY =     3380069.0920     STORAGE         
                 WEL =  2737261351.0697                   WEL =     6599667.9600     WEL_0           
                 DRN = 17092641261.3641                   DRN =    15075688.2995     DRN_0           
                 RCH =           0.0000                   RCH =           0.0000     RCH_0           

           TOTAL OUT = 24057828152.2044             TOTAL OUT =    25055425.3515

            IN - OUT =        6362.6610              IN - OUT =          35.9603

 PERCENT DISCREPANCY =           0.00     PERCENT DISCREPANCY =           0.00




         TIME SUMMARY AT END OF TIME STEP    1 IN STRESS PERIOD  298
                          TIME STEP LENGTH =    1.00000    
                        STRESS PERIOD TIME =    1.00000    
                     TOTAL SIMULATION TIME =    298.000    

end timestep


start timestep kper="299" kstp="1" mode="normal"


 OUTPUT CONTROL FOR STRESS PERIOD 299 IS REPEATED USING SETTINGS FROM A PREVIOUS STRESS PERIOD.


 STRESS PERIOD 299 IS TRANSIENT


 REUSING WELS FROM LAST STRESS PERIOD

 REUSING DRNS FROM LAST STRESS PERIOD

 REUSING RCHS FROM LAST STRESS PERIOD


  VOLUME BUDGET FOR ENTIRE MODEL AT END OF TIME STEP    1, STRESS PERIOD 299
  ---------------------------------------------------------------------------------------------------

     CUMULATIVE VOLUME      L**3       RATES FOR THIS TIME STEP      L**3/T          PACKAGE NAME    
     ------------------                 ------------------------                     ----------------

           IN:                                      IN:
           ---                                      ---
              STO-SS =           0.0000                STO-SS =           0.0000     STORAGE         
              STO-SY =  6734794438.1762                STO-SY =    14612505.7938     STORAGE         
                 WEL =           0.0000                   WEL =           0.0000     WEL_0           
                 DRN =           0.0000                   DRN =           0.0000     DRN_0           
                 RCH = 17345949837.8019                   RCH =     8297255.3187     RCH_0           

            TOTAL IN = 24080744275.9781              TOTAL IN =    22909761.1126

          OUT:                                     OUT:
          ----                                     ----
              STO-SS =           0.0000                STO-SS =           0.0000     STORAGE         
              STO-SY =  4230994021.2354                STO-SY =     3068481.4647     STORAGE         
                 WEL =  2743374933.1776                   WEL =     6113582.1080     WEL_0           
                 DRN = 17106368954.3656                   DRN =    13727693.0014     DRN_0           
                 RCH =           0.0000                   RCH =           0.0000     RCH_0           

           TOTAL OUT = 24080737908.7786             TOTAL OUT =    22909756.5741

            IN - OUT =        6367.1995              IN - OUT =           4.5384

 PERCENT DISCREPANCY =           0.00     PERCENT DISCREPANCY =           0.00




         TIME SUMMARY AT END OF TIME STEP    1 IN STRESS PERIOD  299
                          TIME STEP LENGTH =    1.00000    
                        STRESS PERIOD TIME =    1.00000    
                     TOTAL SIMULATION TIME =    299.000    

end timestep


start timestep kper="300" kstp="1" mode="normal"


 OUTPUT CONTROL FOR STRESS PERIOD 300 IS REPEATED USING SETTINGS FROM A PREVIOUS STRESS PERIOD.


 STRESS PERIOD 300 IS TRANSIENT


 REUSING WELS FROM LAST STRESS PERIOD

 REUSING DRNS FROM LAST STRESS PERIOD

 REUSING RCHS FROM LAST STRESS PERIOD


  VOLUME BUDGET FOR ENTIRE MODEL AT END OF TIME STEP    1, STRESS PERIOD 300
  ---------------------------------------------------------------------------------------------------

     CUMULATIVE VOLUME      L**3       RATES FOR THIS TIME STEP      L**3/T          PACKAGE NAME    
     ------------------                 ------------------------                     ----------------

           IN:                                      IN:
           ---                                      ---
              STO-SS =           0.0000                STO-SS =           0.0000     STORAGE         
              STO-SY =  6750394768.5872                STO-SY =    15600330.4110     STORAGE         
                 WEL =           0.0000                   WEL =           0.0000     WEL_0           
                 DRN =           0.0000                   DRN =           0.0000     DRN_0           
                 RCH = 17358772661.8800                   RCH =    12822824.0781     RCH_0           

            TOTAL IN = 24109167430.4672              TOTAL IN =    28423154.4892

          OUT:                                     OUT:
          ----                                     ----
              STO-SS =           0.0000                STO-SS =           0.0000     STORAGE         
              STO-SY =  4234640457.1966                STO-SY =     3646435.9612     STORAGE         
                 WEL =  2752265085.4107                   WEL =     8890152.2331     WEL_0           
                 DRN = 17122255517.2536                   DRN =    15886562.8880     DRN_0           
                 RCH =           0.0000                   RCH =           0.0000     RCH_0           

           TOTAL OUT = 24109161059.8609             TOTAL OUT =    28423151.0823

            IN - OUT =        6370.6063              IN - OUT =           3.4068

 PERCENT DISCREPANCY =           0.00     PERCENT DISCREPANCY =           0.00




         TIME SUMMARY AT END OF TIME STEP    1 IN STRESS PERIOD  300
                          TIME STEP LENGTH =    1.00000    
                        STRESS PERIOD TIME =    1.00000    
                     TOTAL SIMULATION TIME =    300.000    

end timestep


start timestep kper="301" kstp="1" mode="normal"


 OUTPUT CONTROL FOR STRESS PERIOD 301 IS REPEATED USING SETTINGS FROM A PREVIOUS STRESS PERIOD.


 STRESS PERIOD 301 IS TRANSIENT


 REUSING WELS FROM LAST STRESS PERIOD

 REUSING DRNS FROM LAST STRESS PERIOD

 REUSING RCHS FROM LAST STRESS PERIOD


  VOLUME BUDGET FOR ENTIRE MODEL AT END OF TIME STEP    1, STRESS PERIOD 301
  ---------------------------------------------------------------------------------------------------

     CUMULATIVE VOLUME      L**3       RATES FOR THIS TIME STEP      L**3/T          PACKAGE NAME    
     ------------------                 ------------------------                     ----------------

           IN:                                      IN:
           ---                                      ---
              STO-SS =           0.0000                STO-SS =           0.0000     STORAGE         
              STO-SY =  6766936671.3329                STO-SY =    16541902.7457     STORAGE         
                 WEL =           0.0000                   WEL =           0.0000     WEL_0           
                 DRN =           0.0000                   DRN =           0.0000     DRN_0           
                 RCH = 17369390957.7066                   RCH =    10618295.8266     RCH_0           

            TOTAL IN = 24136327629.0395              TOTAL IN =    27160198.5723

          OUT:                                     OUT:
          ----                                     ----
              STO-SS =           0.0000                STO-SS =           0.0000     STORAGE         
              STO-SY =  4237848795.7345                STO-SY =     3208338.5378     STORAGE         
                 WEL =  2762476231.2907                   WEL =    10211145.8800     WEL_0           
                 DRN = 17135996171.2068                   DRN =    13740653.9532     DRN_0           
                 RCH =           0.0000                   RCH =           0.0000     RCH_0           

           TOTAL OUT = 24136321198.2319             TOTAL OUT =    27160138.3710

            IN - OUT =        6430.8076              IN - OUT =          60.2013

 PERCENT DISCREPANCY =           0.00     PERCENT DISCREPANCY =           0.00




         TIME SUMMARY AT END OF TIME STEP    1 IN STRESS PERIOD  301
                          TIME STEP LENGTH =    1.00000    
                        STRESS PERIOD TIME =    1.00000    
                     TOTAL SIMULATION TIME =    301.000    

end timestep


start timestep kper="302" kstp="1" mode="normal"


 OUTPUT CONTROL FOR STRESS PERIOD 302 IS REPEATED USING SETTINGS FROM A PREVIOUS STRESS PERIOD.


 STRESS PERIOD 302 IS TRANSIENT


 REUSING WELS FROM LAST STRESS PERIOD

 REUSING DRNS FROM LAST STRESS PERIOD

 REUSING RCHS FROM LAST STRESS PERIOD


  VOLUME BUDGET FOR ENTIRE MODEL AT END OF TIME STEP    1, STRESS PERIOD 302
  ---------------------------------------------------------------------------------------------------

     CUMULATIVE VOLUME      L**3       RATES FOR THIS TIME STEP      L**3/T          PACKAGE NAME    
     ------------------                 ------------------------                     ----------------

           IN:                                      IN:
           ---                                      ---
              STO-SS =           0.0000                STO-SS =           0.0000     STORAGE         
              STO-SY =  6781641532.1336                STO-SY =    14704860.8007     STORAGE         
                 WEL =           0.0000                   WEL =           0.0000     WEL_0           
                 DRN =           0.0000                   DRN =           0.0000     DRN_0           
                 RCH = 17381342552.8668                   RCH =    11951595.1602     RCH_0           

            TOTAL IN = 24162984085.0004              TOTAL IN =    26656455.9609

          OUT:                                     OUT:
          ----                                     ----
              STO-SS =           0.0000                STO-SS =           0.0000     STORAGE         
              STO-SY =  4241295050.3867                STO-SY =     3446254.6523     STORAGE         
                 WEL =  2770079293.2535                   WEL =     7603061.9629     WEL_0           
                 DRN = 17151603310.9403                   DRN =    15607139.7336     DRN_0           
                 RCH =           0.0000                   RCH =           0.0000     RCH_0           

           TOTAL OUT = 24162977654.5806             TOTAL OUT =    26656456.3487

            IN - OUT =        6430.4198              IN - OUT =          -0.3878

 PERCENT DISCREPANCY =           0.00     PERCENT DISCREPANCY =          -0.00




         TIME SUMMARY AT END OF TIME STEP    1 IN STRESS PERIOD  302
                          TIME STEP LENGTH =    1.00000    
                        STRESS PERIOD TIME =    1.00000    
                     TOTAL SIMULATION TIME =    302.000    

end timestep


start timestep kper="303" kstp="1" mode="normal"


 OUTPUT CONTROL FOR STRESS PERIOD 303 IS REPEATED USING SETTINGS FROM A PREVIOUS STRESS PERIOD.


 STRESS PERIOD 303 IS TRANSIENT


 REUSING WELS FROM LAST STRESS PERIOD

 REUSING DRNS FROM LAST STRESS PERIOD

 REUSING RCHS FROM LAST STRESS PERIOD


  VOLUME BUDGET FOR ENTIRE MODEL AT END OF TIME STEP    1, STRESS PERIOD 303
  ---------------------------------------------------------------------------------------------------

     CUMULATIVE VOLUME      L**3       RATES FOR THIS TIME STEP      L**3/T          PACKAGE NAME    
     ------------------                 ------------------------                     ----------------

           IN:                                      IN:
           ---                                      ---
              STO-SS =           0.0000                STO-SS =           0.0000     STORAGE         
              STO-SY =  6807687835.8096                STO-SY =    26046303.6760     STORAGE         
                 WEL =           0.0000                   WEL =           0.0000     WEL_0           
                 DRN =           0.0000                   DRN =           0.0000     DRN_0           
                 RCH = 17396594546.1227                   RCH =    15251993.2559     RCH_0           

            TOTAL IN = 24204282381.9323              TOTAL IN =    41298296.9319

          OUT:                                     OUT:
          ----                                     ----
              STO-SS =           0.0000                STO-SS =           0.0000     STORAGE         
              STO-SY =  4245014371.6998                STO-SY =     3719321.3130     STORAGE         
                 WEL =  2794000868.3097                   WEL =    23921575.0561     WEL_0           
                 DRN = 17165260713.7690                   DRN =    13657402.8287     DRN_0           
                 RCH =           0.0000                   RCH =           0.0000     RCH_0           

           TOTAL OUT = 24204275953.7784             TOTAL OUT =    41298299.1978

            IN - OUT =        6428.1539              IN - OUT =          -2.2659

 PERCENT DISCREPANCY =           0.00     PERCENT DISCREPANCY =          -0.00




         TIME SUMMARY AT END OF TIME STEP    1 IN STRESS PERIOD  303
                          TIME STEP LENGTH =    1.00000    
                        STRESS PERIOD TIME =    1.00000    
                     TOTAL SIMULATION TIME =    303.000    

end timestep


start timestep kper="304" kstp="1" mode="normal"


 OUTPUT CONTROL FOR STRESS PERIOD 304 IS REPEATED USING SETTINGS FROM A PREVIOUS STRESS PERIOD.


 STRESS PERIOD 304 IS TRANSIENT


 REUSING WELS FROM LAST STRESS PERIOD

 REUSING DRNS FROM LAST STRESS PERIOD

 REUSING RCHS FROM LAST STRESS PERIOD


  VOLUME BUDGET FOR ENTIRE MODEL AT END OF TIME STEP    1, STRESS PERIOD 304
  ---------------------------------------------------------------------------------------------------

     CUMULATIVE VOLUME      L**3       RATES FOR THIS TIME STEP      L**3/T          PACKAGE NAME    
     ------------------                 ------------------------                     ----------------

           IN:                                      IN:
           ---                                      ---
              STO-SS =           0.0000                STO-SS =           0.0000     STORAGE         
              STO-SY =  6851650479.6190                STO-SY =    43962643.8094     STORAGE         
                 WEL =           0.0000                   WEL =           0.0000     WEL_0           
                 DRN =           0.0000                   DRN =           0.0000     DRN_0           
                 RCH = 17418938172.0102                   RCH =    22343625.8876     RCH_0           

            TOTAL IN = 24270588651.6292              TOTAL IN =    66306269.6969

          OUT:                                     OUT:
          ----                                     ----
              STO-SS =           0.0000                STO-SS =           0.0000     STORAGE         
              STO-SY =  4248169629.6187                STO-SY =     3155257.9189     STORAGE         
                 WEL =  2842552892.7861                   WEL =    48552024.4764     WEL_0           
                 DRN = 17179859697.0759                   DRN =    14598983.3069     DRN_0           
                 RCH =           0.0000                   RCH =           0.0000     RCH_0           

           TOTAL OUT = 24270582219.4806             TOTAL OUT =    66306265.7022

            IN - OUT =        6432.1486              IN - OUT =           3.9948

 PERCENT DISCREPANCY =           0.00     PERCENT DISCREPANCY =           0.00




         TIME SUMMARY AT END OF TIME STEP    1 IN STRESS PERIOD  304
                          TIME STEP LENGTH =    1.00000    
                        STRESS PERIOD TIME =    1.00000    
                     TOTAL SIMULATION TIME =    304.000    

end timestep


start timestep kper="305" kstp="1" mode="normal"


 OUTPUT CONTROL FOR STRESS PERIOD 305 IS REPEATED USING SETTINGS FROM A PREVIOUS STRESS PERIOD.


 STRESS PERIOD 305 IS TRANSIENT


 REUSING WELS FROM LAST STRESS PERIOD

 REUSING DRNS FROM LAST STRESS PERIOD

 REUSING RCHS FROM LAST STRESS PERIOD


  VOLUME BUDGET FOR ENTIRE MODEL AT END OF TIME STEP    1, STRESS PERIOD 305
  ---------------------------------------------------------------------------------------------------

     CUMULATIVE VOLUME      L**3       RATES FOR THIS TIME STEP      L**3/T          PACKAGE NAME    
     ------------------                 ------------------------                     ----------------

           IN:                                      IN:
           ---                                      ---
              STO-SS =           0.0000                STO-SS =           0.0000     STORAGE         
              STO-SY =  6866280646.6995                STO-SY =    14630167.0805     STORAGE         
                 WEL =           0.0000                   WEL =           0.0000     WEL_0           
                 DRN =           0.0000                   DRN =           0.0000     DRN_0           
                 RCH = 17428730506.0096                   RCH =     9792333.9993     RCH_0           

            TOTAL IN = 24295011152.7090              TOTAL IN =    24422501.0798

          OUT:                                     OUT:
          ----                                     ----
              STO-SS =           0.0000                STO-SS =           0.0000     STORAGE         
              STO-SY =  4252048621.6380                STO-SY =     3878992.0193     STORAGE         
                 WEL =  2849757195.8073                   WEL =     7204303.0213     WEL_0           
                 DRN = 17193198885.2395                   DRN =    13339188.1636     DRN_0           
                 RCH =           0.0000                   RCH =           0.0000     RCH_0           

           TOTAL OUT = 24295004702.6848             TOTAL OUT =    24422483.2042

            IN - OUT =        6450.0242              IN - OUT =          17.8756

 PERCENT DISCREPANCY =           0.00     PERCENT DISCREPANCY =           0.00




         TIME SUMMARY AT END OF TIME STEP    1 IN STRESS PERIOD  305
                          TIME STEP LENGTH =    1.00000    
                        STRESS PERIOD TIME =    1.00000    
                     TOTAL SIMULATION TIME =    305.000    

end timestep


start timestep kper="306" kstp="1" mode="normal"


 OUTPUT CONTROL FOR STRESS PERIOD 306 IS REPEATED USING SETTINGS FROM A PREVIOUS STRESS PERIOD.


 STRESS PERIOD 306 IS TRANSIENT


 REUSING WELS FROM LAST STRESS PERIOD

 REUSING DRNS FROM LAST STRESS PERIOD

 REUSING RCHS FROM LAST STRESS PERIOD


  VOLUME BUDGET FOR ENTIRE MODEL AT END OF TIME STEP    1, STRESS PERIOD 306
  ---------------------------------------------------------------------------------------------------

     CUMULATIVE VOLUME      L**3       RATES FOR THIS TIME STEP      L**3/T          PACKAGE NAME    
     ------------------                 ------------------------                     ----------------

           IN:                                      IN:
           ---                                      ---
              STO-SS =           0.0000                STO-SS =           0.0000     STORAGE         
              STO-SY =  6882923188.0929                STO-SY =    16642541.3934     STORAGE         
                 WEL =           0.0000                   WEL =           0.0000     WEL_0           
                 DRN =           0.0000                   DRN =           0.0000     DRN_0           
                 RCH = 17443385001.6030                   RCH =    14654495.5935     RCH_0           

            TOTAL IN = 24326308189.6959              TOTAL IN =    31297036.9869

          OUT:                                     OUT:
          ----                                     ----
              STO-SS =           0.0000                STO-SS =           0.0000     STORAGE         
              STO-SY =  4255848938.6121                STO-SY =     3800316.9742     STORAGE         
                 WEL =  2862001127.7360                   WEL =    12243931.9287     WEL_0           
                 DRN = 17208451676.3421                   DRN =    15252791.1026     DRN_0           
                 RCH =           0.0000                   RCH =           0.0000     RCH_0           

           TOTAL OUT = 24326301742.6903             TOTAL OUT =    31297040.0055

            IN - OUT =        6447.0056              IN - OUT =          -3.0186

 PERCENT DISCREPANCY =           0.00     PERCENT DISCREPANCY =          -0.00




         TIME SUMMARY AT END OF TIME STEP    1 IN STRESS PERIOD  306
                          TIME STEP LENGTH =    1.00000    
                        STRESS PERIOD TIME =    1.00000    
                     TOTAL SIMULATION TIME =    306.000    

end timestep


start timestep kper="307" kstp="1" mode="normal"


 OUTPUT CONTROL FOR STRESS PERIOD 307 IS REPEATED USING SETTINGS FROM A PREVIOUS STRESS PERIOD.


 STRESS PERIOD 307 IS TRANSIENT


 REUSING WELS FROM LAST STRESS PERIOD

 REUSING DRNS FROM LAST STRESS PERIOD

 REUSING RCHS FROM LAST STRESS PERIOD


  VOLUME BUDGET FOR ENTIRE MODEL AT END OF TIME STEP    1, STRESS PERIOD 307
  ---------------------------------------------------------------------------------------------------

     CUMULATIVE VOLUME      L**3       RATES FOR THIS TIME STEP      L**3/T          PACKAGE NAME    
     ------------------                 ------------------------                     ----------------

           IN:                                      IN:
           ---                                      ---
              STO-SS =           0.0000                STO-SS =           0.0000     STORAGE         
              STO-SY =  6895574716.9644                STO-SY =    12651528.8715     STORAGE         
                 WEL =           0.0000                   WEL =           0.0000     WEL_0           
                 DRN =           0.0000                   DRN =           0.0000     DRN_0           
                 RCH = 17454427950.6442                   RCH =    11042949.0411     RCH_0           

            TOTAL IN = 24350002667.6085              TOTAL IN =    23694477.9126

          OUT:                                     OUT:
          ----                                     ----
              STO-SS =           0.0000                STO-SS =           0.0000     STORAGE         
              STO-SY =  4260312043.7368                STO-SY =     4463105.1247     STORAGE         
                 WEL =  2867438116.2034                   WEL =     5436988.4674     WEL_0           
                 DRN = 17222246063.8626                   DRN =    13794387.5205     DRN_0           
                 RCH =           0.0000                   RCH =           0.0000     RCH_0           

           TOTAL OUT = 24349996223.8028             TOTAL OUT =    23694481.1125

            IN - OUT =        6443.8057              IN - OUT =          -3.1999

 PERCENT DISCREPANCY =           0.00     PERCENT DISCREPANCY =          -0.00




         TIME SUMMARY AT END OF TIME STEP    1 IN STRESS PERIOD  307
                          TIME STEP LENGTH =    1.00000    
                        STRESS PERIOD TIME =    1.00000    
                     TOTAL SIMULATION TIME =    307.000    

end timestep


start timestep kper="308" kstp="1" mode="normal"


 OUTPUT CONTROL FOR STRESS PERIOD 308 IS REPEATED USING SETTINGS FROM A PREVIOUS STRESS PERIOD.


 STRESS PERIOD 308 IS TRANSIENT


 REUSING WELS FROM LAST STRESS PERIOD

 REUSING DRNS FROM LAST STRESS PERIOD

 REUSING RCHS FROM LAST STRESS PERIOD


  VOLUME BUDGET FOR ENTIRE MODEL AT END OF TIME STEP    1, STRESS PERIOD 308
  ---------------------------------------------------------------------------------------------------

     CUMULATIVE VOLUME      L**3       RATES FOR THIS TIME STEP      L**3/T          PACKAGE NAME    
     ------------------                 ------------------------                     ----------------

           IN:                                      IN:
           ---                                      ---
              STO-SS =           0.0000                STO-SS =           0.0000     STORAGE         
              STO-SY =  6906991467.4719                STO-SY =    11416750.5075     STORAGE         
                 WEL =           0.0000                   WEL =           0.0000     WEL_0           
                 DRN =           0.0000                   DRN =           0.0000     DRN_0           
                 RCH = 17470650005.0629                   RCH =    16222054.4187     RCH_0           

            TOTAL IN = 24377641472.5348              TOTAL IN =    27638804.9262

          OUT:                                     OUT:
          ----                                     ----
              STO-SS =           0.0000                STO-SS =           0.0000     STORAGE         
              STO-SY =  4266321658.8632                STO-SY =     6009615.1264     STORAGE         
                 WEL =  2873316425.5972                   WEL =     5878309.3938     WEL_0           
                 DRN = 17237996952.6910                   DRN =    15750888.8284     DRN_0           
                 RCH =           0.0000                   RCH =           0.0000     RCH_0           

           TOTAL OUT = 24377635037.1514             TOTAL OUT =    27638813.3487

            IN - OUT =        6435.3833              IN - OUT =          -8.4224

 PERCENT DISCREPANCY =           0.00     PERCENT DISCREPANCY =          -0.00




         TIME SUMMARY AT END OF TIME STEP    1 IN STRESS PERIOD  308
                          TIME STEP LENGTH =    1.00000    
                        STRESS PERIOD TIME =    1.00000    
                     TOTAL SIMULATION TIME =    308.000    

end timestep


start timestep kper="309" kstp="1" mode="normal"


 OUTPUT CONTROL FOR STRESS PERIOD 309 IS REPEATED USING SETTINGS FROM A PREVIOUS STRESS PERIOD.


 STRESS PERIOD 309 IS TRANSIENT


 REUSING WELS FROM LAST STRESS PERIOD

 REUSING DRNS FROM LAST STRESS PERIOD

 REUSING RCHS FROM LAST STRESS PERIOD


  VOLUME BUDGET FOR ENTIRE MODEL AT END OF TIME STEP    1, STRESS PERIOD 309
  ---------------------------------------------------------------------------------------------------

     CUMULATIVE VOLUME      L**3       RATES FOR THIS TIME STEP      L**3/T          PACKAGE NAME    
     ------------------                 ------------------------                     ----------------

           IN:                                      IN:
           ---                                      ---
              STO-SS =           0.0000                STO-SS =           0.0000     STORAGE         
              STO-SY =  6923034177.4749                STO-SY =    16042710.0031     STORAGE         
                 WEL =           0.0000                   WEL =           0.0000     WEL_0           
                 DRN =           0.0000                   DRN =           0.0000     DRN_0           
                 RCH = 17483194929.7693                   RCH =    12544924.7064     RCH_0           

            TOTAL IN = 24406229107.2442              TOTAL IN =    28587634.7095

          OUT:                                     OUT:
          ----                                     ----
              STO-SS =           0.0000                STO-SS =           0.0000     STORAGE         
              STO-SY =  4270110928.7808                STO-SY =     3789269.9176     STORAGE         
                 WEL =  2885053802.1613                   WEL =    11737376.5640     WEL_0           
                 DRN = 17251057928.7875                   DRN =    13060976.0964     DRN_0           
                 RCH =           0.0000                   RCH =           0.0000     RCH_0           

           TOTAL OUT = 24406222659.7295             TOTAL OUT =    28587622.5781

            IN - OUT =        6447.5147              IN - OUT =          12.1314

 PERCENT DISCREPANCY =           0.00     PERCENT DISCREPANCY =           0.00




         TIME SUMMARY AT END OF TIME STEP    1 IN STRESS PERIOD  309
                          TIME STEP LENGTH =    1.00000    
                        STRESS PERIOD TIME =    1.00000    
                     TOTAL SIMULATION TIME =    309.000    

end timestep


start timestep kper="310" kstp="1" mode="normal"


 OUTPUT CONTROL FOR STRESS PERIOD 310 IS REPEATED USING SETTINGS FROM A PREVIOUS STRESS PERIOD.


 STRESS PERIOD 310 IS TRANSIENT


 REUSING WELS FROM LAST STRESS PERIOD

 REUSING DRNS FROM LAST STRESS PERIOD

 REUSING RCHS FROM LAST STRESS PERIOD


  VOLUME BUDGET FOR ENTIRE MODEL AT END OF TIME STEP    1, STRESS PERIOD 310
  ---------------------------------------------------------------------------------------------------

     CUMULATIVE VOLUME      L**3       RATES FOR THIS TIME STEP      L**3/T          PACKAGE NAME    
     ------------------                 ------------------------                     ----------------

           IN:                                      IN:
           ---                                      ---
              STO-SS =           0.0000                STO-SS =           0.0000     STORAGE         
              STO-SY =  6942655181.0367                STO-SY =    19621003.5618     STORAGE         
                 WEL =           0.0000                   WEL =           0.0000     WEL_0           
                 DRN =           0.0000                   DRN =           0.0000     DRN_0           
                 RCH = 17499010651.3112                   RCH =    15815721.5419     RCH_0           

            TOTAL IN = 24441665832.3479              TOTAL IN =    35436725.1037

          OUT:                                     OUT:
          ----                                     ----
              STO-SS =           0.0000                STO-SS =           0.0000     STORAGE         
              STO-SY =  4273594948.5132                STO-SY =     3484019.7324     STORAGE         
                 WEL =  2901795492.5213                   WEL =    16741690.3600     WEL_0           
                 DRN = 17266268926.7705                   DRN =    15210997.9831     DRN_0           
                 RCH =           0.0000                   RCH =           0.0000     RCH_0           

           TOTAL OUT = 24441659367.8050             TOTAL OUT =    35436708.0754

            IN - OUT =        6464.5430              IN - OUT =          17.0283

 PERCENT DISCREPANCY =           0.00     PERCENT DISCREPANCY =           0.00




         TIME SUMMARY AT END OF TIME STEP    1 IN STRESS PERIOD  310
                          TIME STEP LENGTH =    1.00000    
                        STRESS PERIOD TIME =    1.00000    
                     TOTAL SIMULATION TIME =    310.000    

end timestep


start timestep kper="311" kstp="1" mode="normal"


 OUTPUT CONTROL FOR STRESS PERIOD 311 IS REPEATED USING SETTINGS FROM A PREVIOUS STRESS PERIOD.


 STRESS PERIOD 311 IS TRANSIENT


 REUSING WELS FROM LAST STRESS PERIOD

 REUSING DRNS FROM LAST STRESS PERIOD

 REUSING RCHS FROM LAST STRESS PERIOD


  VOLUME BUDGET FOR ENTIRE MODEL AT END OF TIME STEP    1, STRESS PERIOD 311
  ---------------------------------------------------------------------------------------------------

     CUMULATIVE VOLUME      L**3       RATES FOR THIS TIME STEP      L**3/T          PACKAGE NAME    
     ------------------                 ------------------------                     ----------------

           IN:                                      IN:
           ---                                      ---
              STO-SS =           0.0000                STO-SS =           0.0000     STORAGE         
              STO-SY =  6959720372.3178                STO-SY =    17065191.2811     STORAGE         
                 WEL =           0.0000                   WEL =           0.0000     WEL_0           
                 DRN =           0.0000                   DRN =           0.0000     DRN_0           
                 RCH = 17510712003.8498                   RCH =    11701352.5386     RCH_0           

            TOTAL IN = 24470432376.1676              TOTAL IN =    28766543.8197

          OUT:                                     OUT:
          ----                                     ----
              STO-SS =           0.0000                STO-SS =           0.0000     STORAGE         
              STO-SY =  4276570816.6870                STO-SY =     2975868.1738     STORAGE         
                 WEL =  2914781527.0262                   WEL =    12986034.5050     WEL_0           
                 DRN = 17279073537.6856                   DRN =    12804610.9151     DRN_0           
                 RCH =           0.0000                   RCH =           0.0000     RCH_0           

           TOTAL OUT = 24470425881.3988             TOTAL OUT =    28766513.5939

            IN - OUT =        6494.7688              IN - OUT =          30.2258

 PERCENT DISCREPANCY =           0.00     PERCENT DISCREPANCY =           0.00




         TIME SUMMARY AT END OF TIME STEP    1 IN STRESS PERIOD  311
                          TIME STEP LENGTH =    1.00000    
                        STRESS PERIOD TIME =    1.00000    
                     TOTAL SIMULATION TIME =    311.000    

end timestep


start timestep kper="312" kstp="1" mode="normal"


 OUTPUT CONTROL FOR STRESS PERIOD 312 IS REPEATED USING SETTINGS FROM A PREVIOUS STRESS PERIOD.


 STRESS PERIOD 312 IS TRANSIENT


 REUSING WELS FROM LAST STRESS PERIOD

 REUSING DRNS FROM LAST STRESS PERIOD

 REUSING RCHS FROM LAST STRESS PERIOD


  VOLUME BUDGET FOR ENTIRE MODEL AT END OF TIME STEP    1, STRESS PERIOD 312
  ---------------------------------------------------------------------------------------------------

     CUMULATIVE VOLUME      L**3       RATES FOR THIS TIME STEP      L**3/T          PACKAGE NAME    
     ------------------                 ------------------------                     ----------------

           IN:                                      IN:
           ---                                      ---
              STO-SS =           0.0000                STO-SS =           0.0000     STORAGE         
              STO-SY =  6975067668.1016                STO-SY =    15347295.7837     STORAGE         
                 WEL =           0.0000                   WEL =           0.0000     WEL_0           
                 DRN =           0.0000                   DRN =           0.0000     DRN_0           
                 RCH = 17523131100.1134                   RCH =    12419096.2636     RCH_0           

            TOTAL IN = 24498198768.2150              TOTAL IN =    27766392.0473

          OUT:                                     OUT:
          ----                                     ----
              STO-SS =           0.0000                STO-SS =           0.0000     STORAGE         
              STO-SY =  4279575275.6723                STO-SY =     3004458.9853     STORAGE         
                 WEL =  2925069414.8029                   WEL =    10287887.7767     WEL_0           
                 DRN = 17293547573.0327                   DRN =    14474035.3472     DRN_0           
                 RCH =           0.0000                   RCH =           0.0000     RCH_0           

           TOTAL OUT = 24498192263.5080             TOTAL OUT =    27766382.1092

            IN - OUT =        6504.7070              IN - OUT =           9.9382

 PERCENT DISCREPANCY =           0.00     PERCENT DISCREPANCY =           0.00




         TIME SUMMARY AT END OF TIME STEP    1 IN STRESS PERIOD  312
                          TIME STEP LENGTH =    1.00000    
                        STRESS PERIOD TIME =    1.00000    
                     TOTAL SIMULATION TIME =    312.000    

end timestep


start timestep kper="313" kstp="1" mode="normal"


 OUTPUT CONTROL FOR STRESS PERIOD 313 IS REPEATED USING SETTINGS FROM A PREVIOUS STRESS PERIOD.


 STRESS PERIOD 313 IS TRANSIENT


 REUSING WELS FROM LAST STRESS PERIOD

 REUSING DRNS FROM LAST STRESS PERIOD

 REUSING RCHS FROM LAST STRESS PERIOD


  VOLUME BUDGET FOR ENTIRE MODEL AT END OF TIME STEP    1, STRESS PERIOD 313
  ---------------------------------------------------------------------------------------------------

     CUMULATIVE VOLUME      L**3       RATES FOR THIS TIME STEP      L**3/T          PACKAGE NAME    
     ------------------                 ------------------------                     ----------------

           IN:                                      IN:
           ---                                      ---
              STO-SS =           0.0000                STO-SS =           0.0000     STORAGE         
              STO-SY =  6992789524.9299                STO-SY =    17721856.8283     STORAGE         
                 WEL =           0.0000                   WEL =           0.0000     WEL_0           
                 DRN =           0.0000                   DRN =           0.0000     DRN_0           
                 RCH = 17535432002.5544                   RCH =    12300902.4410     RCH_0           

            TOTAL IN = 24528221527.4842              TOTAL IN =    30022759.2693

          OUT:                                     OUT:
          ----                                     ----
              STO-SS =           0.0000                STO-SS =           0.0000     STORAGE         
              STO-SY =  4282684065.9411                STO-SY =     3108790.2687     STORAGE         
                 WEL =  2939142277.3468                   WEL =    14072862.5439     WEL_0           
                 DRN = 17306388681.0498                   DRN =    12841108.0170     DRN_0           
                 RCH =           0.0000                   RCH =           0.0000     RCH_0           

           TOTAL OUT = 24528215024.3377             TOTAL OUT =    30022760.8297

            IN - OUT =        6503.1465              IN - OUT =          -1.5604

 PERCENT DISCREPANCY =           0.00     PERCENT DISCREPANCY =          -0.00




         TIME SUMMARY AT END OF TIME STEP    1 IN STRESS PERIOD  313
                          TIME STEP LENGTH =    1.00000    
                        STRESS PERIOD TIME =    1.00000    
                     TOTAL SIMULATION TIME =    313.000    

end timestep


start timestep kper="314" kstp="1" mode="normal"


 OUTPUT CONTROL FOR STRESS PERIOD 314 IS REPEATED USING SETTINGS FROM A PREVIOUS STRESS PERIOD.


 STRESS PERIOD 314 IS TRANSIENT


 REUSING WELS FROM LAST STRESS PERIOD

 REUSING DRNS FROM LAST STRESS PERIOD

 REUSING RCHS FROM LAST STRESS PERIOD


  VOLUME BUDGET FOR ENTIRE MODEL AT END OF TIME STEP    1, STRESS PERIOD 314
  ---------------------------------------------------------------------------------------------------

     CUMULATIVE VOLUME      L**3       RATES FOR THIS TIME STEP      L**3/T          PACKAGE NAME    
     ------------------                 ------------------------                     ----------------

           IN:                                      IN:
           ---                                      ---
              STO-SS =           0.0000                STO-SS =           0.0000     STORAGE         
              STO-SY =  7005918377.2873                STO-SY =    13128852.3574     STORAGE         
                 WEL =           0.0000                   WEL =           0.0000     WEL_0           
                 DRN =           0.0000                   DRN =           0.0000     DRN_0           
                 RCH = 17545904276.9823                   RCH =    10472274.4279     RCH_0           

            TOTAL IN = 24551822654.2696              TOTAL IN =    23601126.7853

          OUT:                                     OUT:
          ----                                     ----
              STO-SS =           0.0000                STO-SS =           0.0000     STORAGE         
              STO-SY =  4285841993.3406                STO-SY =     3157927.3996     STORAGE         
                 WEL =  2945086616.8999                   WEL =     5944339.5531     WEL_0           
                 DRN = 17320887529.2504                   DRN =    14498848.2006     DRN_0           
                 RCH =           0.0000                   RCH =           0.0000     RCH_0           

           TOTAL OUT = 24551816139.4909             TOTAL OUT =    23601115.1532

            IN - OUT =        6514.7786              IN - OUT =          11.6321

 PERCENT DISCREPANCY =           0.00     PERCENT DISCREPANCY =           0.00




         TIME SUMMARY AT END OF TIME STEP    1 IN STRESS PERIOD  314
                          TIME STEP LENGTH =    1.00000    
                        STRESS PERIOD TIME =    1.00000    
                     TOTAL SIMULATION TIME =    314.000    

end timestep


start timestep kper="315" kstp="1" mode="normal"


 OUTPUT CONTROL FOR STRESS PERIOD 315 IS REPEATED USING SETTINGS FROM A PREVIOUS STRESS PERIOD.


 STRESS PERIOD 315 IS TRANSIENT


 REUSING WELS FROM LAST STRESS PERIOD

 REUSING DRNS FROM LAST STRESS PERIOD

 REUSING RCHS FROM LAST STRESS PERIOD


  VOLUME BUDGET FOR ENTIRE MODEL AT END OF TIME STEP    1, STRESS PERIOD 315
  ---------------------------------------------------------------------------------------------------

     CUMULATIVE VOLUME      L**3       RATES FOR THIS TIME STEP      L**3/T          PACKAGE NAME    
     ------------------                 ------------------------                     ----------------

           IN:                                      IN:
           ---                                      ---
              STO-SS =           0.0000                STO-SS =           0.0000     STORAGE         
              STO-SY =  7021573276.3255                STO-SY =    15654899.0383     STORAGE         
                 WEL =           0.0000                   WEL =           0.0000     WEL_0           
                 DRN =           0.0000                   DRN =           0.0000     DRN_0           
                 RCH = 17559014845.1276                   RCH =    13110568.1453     RCH_0           

            TOTAL IN = 24580588121.4531              TOTAL IN =    28765467.1835

          OUT:                                     OUT:
          ----                                     ----
              STO-SS =           0.0000                STO-SS =           0.0000     STORAGE         
              STO-SY =  4289586346.3856                STO-SY =     3744353.0450     STORAGE         
                 WEL =  2957428796.8343                   WEL =    12342179.9343     WEL_0           
                 DRN = 17333566466.7757                   DRN =    12678937.5253     DRN_0           
                 RCH =           0.0000                   RCH =           0.0000     RCH_0           

           TOTAL OUT = 24580581609.9956             TOTAL OUT =    28765470.5047

            IN - OUT =        6511.4575              IN - OUT =          -3.3211

 PERCENT DISCREPANCY =           0.00     PERCENT DISCREPANCY =          -0.00




         TIME SUMMARY AT END OF TIME STEP    1 IN STRESS PERIOD  315
                          TIME STEP LENGTH =    1.00000    
                        STRESS PERIOD TIME =    1.00000    
                     TOTAL SIMULATION TIME =    315.000    

end timestep


start timestep kper="316" kstp="1" mode="normal"


 OUTPUT CONTROL FOR STRESS PERIOD 316 IS REPEATED USING SETTINGS FROM A PREVIOUS STRESS PERIOD.


 STRESS PERIOD 316 IS TRANSIENT


 REUSING WELS FROM LAST STRESS PERIOD

 REUSING DRNS FROM LAST STRESS PERIOD

 REUSING RCHS FROM LAST STRESS PERIOD


  VOLUME BUDGET FOR ENTIRE MODEL AT END OF TIME STEP    1, STRESS PERIOD 316
  ---------------------------------------------------------------------------------------------------

     CUMULATIVE VOLUME      L**3       RATES FOR THIS TIME STEP      L**3/T          PACKAGE NAME    
     ------------------                 ------------------------                     ----------------

           IN:                                      IN:
           ---                                      ---
              STO-SS =           0.0000                STO-SS =           0.0000     STORAGE         
              STO-SY =  7034870854.9559                STO-SY =    13297578.6304     STORAGE         
                 WEL =           0.0000                   WEL =           0.0000     WEL_0           
                 DRN =           0.0000                   DRN =           0.0000     DRN_0           
                 RCH = 17569003780.3218                   RCH =     9988935.1943     RCH_0           

            TOTAL IN = 24603874635.2777              TOTAL IN =    23286513.8246

          OUT:                                     OUT:
          ----                                     ----
              STO-SS =           0.0000                STO-SS =           0.0000     STORAGE         
              STO-SY =  4292568132.8339                STO-SY =     2981786.4483     STORAGE         
                 WEL =  2963446037.0918                   WEL =     6017240.2575     WEL_0           
                 DRN = 17347853956.8955                   DRN =    14287490.1198     DRN_0           
                 RCH =           0.0000                   RCH =           0.0000     RCH_0           

           TOTAL OUT = 24603868126.8212             TOTAL OUT =    23286516.8256

            IN - OUT =        6508.4565              IN - OUT =          -3.0010

 PERCENT DISCREPANCY =           0.00     PERCENT DISCREPANCY =          -0.00




         TIME SUMMARY AT END OF TIME STEP    1 IN STRESS PERIOD  316
                          TIME STEP LENGTH =    1.00000    
                        STRESS PERIOD TIME =    1.00000    
                     TOTAL SIMULATION TIME =    316.000    

end timestep


start timestep kper="317" kstp="1" mode="normal"


 OUTPUT CONTROL FOR STRESS PERIOD 317 IS REPEATED USING SETTINGS FROM A PREVIOUS STRESS PERIOD.


 STRESS PERIOD 317 IS TRANSIENT


 REUSING WELS FROM LAST STRESS PERIOD

 REUSING DRNS FROM LAST STRESS PERIOD

 REUSING RCHS FROM LAST STRESS PERIOD


  VOLUME BUDGET FOR ENTIRE MODEL AT END OF TIME STEP    1, STRESS PERIOD 317
  ---------------------------------------------------------------------------------------------------

     CUMULATIVE VOLUME      L**3       RATES FOR THIS TIME STEP      L**3/T          PACKAGE NAME    
     ------------------                 ------------------------                     ----------------

           IN:                                      IN:
           ---                                      ---
              STO-SS =           0.0000                STO-SS =           0.0000     STORAGE         
              STO-SY =  7046565538.0582                STO-SY =    11694683.1023     STORAGE         
                 WEL =           0.0000                   WEL =           0.0000     WEL_0           
                 DRN =           0.0000                   DRN =           0.0000     DRN_0           
                 RCH = 17583382532.0855                   RCH =    14378751.7637     RCH_0           

            TOTAL IN = 24629948070.1438              TOTAL IN =    26073434.8660

          OUT:                                     OUT:
          ----                                     ----
              STO-SS =           0.0000                STO-SS =           0.0000     STORAGE         
              STO-SY =  4298804775.0569                STO-SY =     6236642.2230     STORAGE         
                 WEL =  2970097967.5814                   WEL =     6651930.4896     WEL_0           
                 DRN = 17361038796.2688                   DRN =    13184839.3733     DRN_0           
                 RCH =           0.0000                   RCH =           0.0000     RCH_0           

           TOTAL OUT = 24629941538.9071             TOTAL OUT =    26073412.0859

            IN - OUT =        6531.2367              IN - OUT =          22.7801

 PERCENT DISCREPANCY =           0.00     PERCENT DISCREPANCY =           0.00




         TIME SUMMARY AT END OF TIME STEP    1 IN STRESS PERIOD  317
                          TIME STEP LENGTH =    1.00000    
                        STRESS PERIOD TIME =    1.00000    
                     TOTAL SIMULATION TIME =    317.000    

end timestep


start timestep kper="318" kstp="1" mode="normal"


 OUTPUT CONTROL FOR STRESS PERIOD 318 IS REPEATED USING SETTINGS FROM A PREVIOUS STRESS PERIOD.


 STRESS PERIOD 318 IS TRANSIENT


 REUSING WELS FROM LAST STRESS PERIOD

 REUSING DRNS FROM LAST STRESS PERIOD

 REUSING RCHS FROM LAST STRESS PERIOD


  VOLUME BUDGET FOR ENTIRE MODEL AT END OF TIME STEP    1, STRESS PERIOD 318
  ---------------------------------------------------------------------------------------------------

     CUMULATIVE VOLUME      L**3       RATES FOR THIS TIME STEP      L**3/T          PACKAGE NAME    
     ------------------                 ------------------------                     ----------------

           IN:                                      IN:
           ---                                      ---
              STO-SS =           0.0000                STO-SS =           0.0000     STORAGE         
              STO-SY =  7059912514.7816                STO-SY =    13346976.7234     STORAGE         
                 WEL =           0.0000                   WEL =           0.0000     WEL_0           
                 DRN =           0.0000                   DRN =           0.0000     DRN_0           
                 RCH = 17592414289.8512                   RCH =     9031757.7656     RCH_0           

            TOTAL IN = 24652326804.6328              TOTAL IN =    22378734.4891

          OUT:                                     OUT:
          ----                                     ----
              STO-SS =           0.0000                STO-SS =           0.0000     STORAGE         
              STO-SY =  4301613173.4337                STO-SY =     2808398.3768     STORAGE         
                 WEL =  2975301584.0861                   WEL =     5203616.5047     WEL_0           
                 DRN = 17375405415.4082                   DRN =    14366619.1395     DRN_0           
                 RCH =           0.0000                   RCH =           0.0000     RCH_0           

           TOTAL OUT = 24652320172.9281             TOTAL OUT =    22378634.0210

            IN - OUT =        6631.7047              IN - OUT =         100.4681

 PERCENT DISCREPANCY =           0.00     PERCENT DISCREPANCY =           0.00




         TIME SUMMARY AT END OF TIME STEP    1 IN STRESS PERIOD  318
                          TIME STEP LENGTH =    1.00000    
                        STRESS PERIOD TIME =    1.00000    
                     TOTAL SIMULATION TIME =    318.000    

end timestep


start timestep kper="319" kstp="1" mode="normal"


 OUTPUT CONTROL FOR STRESS PERIOD 319 IS REPEATED USING SETTINGS FROM A PREVIOUS STRESS PERIOD.


 STRESS PERIOD 319 IS TRANSIENT


 REUSING WELS FROM LAST STRESS PERIOD

 REUSING DRNS FROM LAST STRESS PERIOD

 REUSING RCHS FROM LAST STRESS PERIOD


  VOLUME BUDGET FOR ENTIRE MODEL AT END OF TIME STEP    1, STRESS PERIOD 319
  ---------------------------------------------------------------------------------------------------

     CUMULATIVE VOLUME      L**3       RATES FOR THIS TIME STEP      L**3/T          PACKAGE NAME    
     ------------------                 ------------------------                     ----------------

           IN:                                      IN:
           ---                                      ---
              STO-SS =           0.0000                STO-SS =           0.0000     STORAGE         
              STO-SY =  7073047055.4848                STO-SY =    13134540.7032     STORAGE         
                 WEL =           0.0000                   WEL =           0.0000     WEL_0           
                 DRN =           0.0000                   DRN =           0.0000     DRN_0           
                 RCH = 17607026297.3534                   RCH =    14612007.5022     RCH_0           

            TOTAL IN = 24680073352.8382              TOTAL IN =    27746548.2054

          OUT:                                     OUT:
          ----                                     ----
              STO-SS =           0.0000                STO-SS =           0.0000     STORAGE         
              STO-SY =  4306608903.4699                STO-SY =     4995730.0362     STORAGE         
                 WEL =  2984888104.5466                   WEL =     9586520.4605     WEL_0           
                 DRN = 17388569704.7789                   DRN =    13164289.3707     DRN_0           
                 RCH =           0.0000                   RCH =           0.0000     RCH_0           

           TOTAL OUT = 24680066712.7954             TOTAL OUT =    27746539.8673

            IN - OUT =        6640.0428              IN - OUT =           8.3381

 PERCENT DISCREPANCY =           0.00     PERCENT DISCREPANCY =           0.00




         TIME SUMMARY AT END OF TIME STEP    1 IN STRESS PERIOD  319
                          TIME STEP LENGTH =    1.00000    
                        STRESS PERIOD TIME =    1.00000    
                     TOTAL SIMULATION TIME =    319.000    

end timestep


start timestep kper="320" kstp="1" mode="normal"


 OUTPUT CONTROL FOR STRESS PERIOD 320 IS REPEATED USING SETTINGS FROM A PREVIOUS STRESS PERIOD.


 STRESS PERIOD 320 IS TRANSIENT


 REUSING WELS FROM LAST STRESS PERIOD

 REUSING DRNS FROM LAST STRESS PERIOD

 REUSING RCHS FROM LAST STRESS PERIOD


  VOLUME BUDGET FOR ENTIRE MODEL AT END OF TIME STEP    1, STRESS PERIOD 320
  ---------------------------------------------------------------------------------------------------

     CUMULATIVE VOLUME      L**3       RATES FOR THIS TIME STEP      L**3/T          PACKAGE NAME    
     ------------------                 ------------------------                     ----------------

           IN:                                      IN:
           ---                                      ---
              STO-SS =           0.0000                STO-SS =           0.0000     STORAGE         
              STO-SY =  7086258583.3495                STO-SY =    13211527.8647     STORAGE         
                 WEL =           0.0000                   WEL =           0.0000     WEL_0           
                 DRN =           0.0000                   DRN =           0.0000     DRN_0           
                 RCH = 17620984588.2512                   RCH =    13958290.8978     RCH_0           

            TOTAL IN = 24707243171.6007              TOTAL IN =    27169818.7625

          OUT:                                     OUT:
          ----                                     ----
              STO-SS =           0.0000                STO-SS =           0.0000     STORAGE         
              STO-SY =  4310795364.9091                STO-SY =     4186461.4392     STORAGE         
                 WEL =  2993515448.0734                   WEL =     8627343.5269     WEL_0           
                 DRN = 17402925572.7690                   DRN =    14355867.9901     DRN_0           
                 RCH =           0.0000                   RCH =           0.0000     RCH_0           

           TOTAL OUT = 24707236385.7516             TOTAL OUT =    27169672.9562

            IN - OUT =        6785.8491              IN - OUT =         145.8063

 PERCENT DISCREPANCY =           0.00     PERCENT DISCREPANCY =           0.00




         TIME SUMMARY AT END OF TIME STEP    1 IN STRESS PERIOD  320
                          TIME STEP LENGTH =    1.00000    
                        STRESS PERIOD TIME =    1.00000    
                     TOTAL SIMULATION TIME =    320.000    

end timestep


start timestep kper="321" kstp="1" mode="normal"


 OUTPUT CONTROL FOR STRESS PERIOD 321 IS REPEATED USING SETTINGS FROM A PREVIOUS STRESS PERIOD.


 STRESS PERIOD 321 IS TRANSIENT


 REUSING WELS FROM LAST STRESS PERIOD

 REUSING DRNS FROM LAST STRESS PERIOD

 REUSING RCHS FROM LAST STRESS PERIOD


  VOLUME BUDGET FOR ENTIRE MODEL AT END OF TIME STEP    1, STRESS PERIOD 321
  ---------------------------------------------------------------------------------------------------

     CUMULATIVE VOLUME      L**3       RATES FOR THIS TIME STEP      L**3/T          PACKAGE NAME    
     ------------------                 ------------------------                     ----------------

           IN:                                      IN:
           ---                                      ---
              STO-SS =           0.0000                STO-SS =           0.0000     STORAGE         
              STO-SY =  7104524515.3630                STO-SY =    18265932.0135     STORAGE         
                 WEL =           0.0000                   WEL =           0.0000     WEL_0           
                 DRN =           0.0000                   DRN =           0.0000     DRN_0           
                 RCH = 17634983303.6461                   RCH =    13998715.3948     RCH_0           

            TOTAL IN = 24739507819.0090              TOTAL IN =    32264647.4083

          OUT:                                     OUT:
          ----                                     ----
              STO-SS =           0.0000                STO-SS =           0.0000     STORAGE         
              STO-SY =  4314609591.2222                STO-SY =     3814226.3131     STORAGE         
                 WEL =  3009258802.3618                   WEL =    15743354.2884     WEL_0           
                 DRN = 17415632629.0124                   DRN =    12707056.2434     DRN_0           
                 RCH =           0.0000                   RCH =           0.0000     RCH_0           

           TOTAL OUT = 24739501022.5964             TOTAL OUT =    32264636.8448

            IN - OUT =        6796.4126              IN - OUT =          10.5635

 PERCENT DISCREPANCY =           0.00     PERCENT DISCREPANCY =           0.00




         TIME SUMMARY AT END OF TIME STEP    1 IN STRESS PERIOD  321
                          TIME STEP LENGTH =    1.00000    
                        STRESS PERIOD TIME =    1.00000    
                     TOTAL SIMULATION TIME =    321.000    

end timestep


start timestep kper="322" kstp="1" mode="normal"


 OUTPUT CONTROL FOR STRESS PERIOD 322 IS REPEATED USING SETTINGS FROM A PREVIOUS STRESS PERIOD.


 STRESS PERIOD 322 IS TRANSIENT


 REUSING WELS FROM LAST STRESS PERIOD

 REUSING DRNS FROM LAST STRESS PERIOD

 REUSING RCHS FROM LAST STRESS PERIOD


  VOLUME BUDGET FOR ENTIRE MODEL AT END OF TIME STEP    1, STRESS PERIOD 322
  ---------------------------------------------------------------------------------------------------

     CUMULATIVE VOLUME      L**3       RATES FOR THIS TIME STEP      L**3/T          PACKAGE NAME    
     ------------------                 ------------------------                     ----------------

           IN:                                      IN:
           ---                                      ---
              STO-SS =           0.0000                STO-SS =           0.0000     STORAGE         
              STO-SY =  7120875969.1830                STO-SY =    16351453.8200     STORAGE         
                 WEL =           0.0000                   WEL =           0.0000     WEL_0           
                 DRN =           0.0000                   DRN =           0.0000     DRN_0           
                 RCH = 17646135873.9480                   RCH =    11152570.3020     RCH_0           

            TOTAL IN = 24767011843.1310              TOTAL IN =    27504024.1220

          OUT:                                     OUT:
          ----                                     ----
              STO-SS =           0.0000                STO-SS =           0.0000     STORAGE         
              STO-SY =  4317278421.8660                STO-SY =     2668830.6438     STORAGE         
                 WEL =  3020416961.6094                   WEL =    11158159.2476     WEL_0           
                 DRN = 17429309674.6786                   DRN =    13677045.6662     DRN_0           
                 RCH =           0.0000                   RCH =           0.0000     RCH_0           

           TOTAL OUT = 24767005058.1540             TOTAL OUT =    27504035.5576

            IN - OUT =        6784.9770              IN - OUT =         -11.4357

 PERCENT DISCREPANCY =           0.00     PERCENT DISCREPANCY =          -0.00




         TIME SUMMARY AT END OF TIME STEP    1 IN STRESS PERIOD  322
                          TIME STEP LENGTH =    1.00000    
                        STRESS PERIOD TIME =    1.00000    
                     TOTAL SIMULATION TIME =    322.000    

end timestep


start timestep kper="323" kstp="1" mode="normal"


 OUTPUT CONTROL FOR STRESS PERIOD 323 IS REPEATED USING SETTINGS FROM A PREVIOUS STRESS PERIOD.


 STRESS PERIOD 323 IS TRANSIENT


 REUSING WELS FROM LAST STRESS PERIOD

 REUSING DRNS FROM LAST STRESS PERIOD

 REUSING RCHS FROM LAST STRESS PERIOD


  VOLUME BUDGET FOR ENTIRE MODEL AT END OF TIME STEP    1, STRESS PERIOD 323
  ---------------------------------------------------------------------------------------------------

     CUMULATIVE VOLUME      L**3       RATES FOR THIS TIME STEP      L**3/T          PACKAGE NAME    
     ------------------                 ------------------------                     ----------------

           IN:                                      IN:
           ---                                      ---
              STO-SS =           0.0000                STO-SS =           0.0000     STORAGE         
              STO-SY =  7138148226.7904                STO-SY =    17272257.6074     STORAGE         
                 WEL =           0.0000                   WEL =           0.0000     WEL_0           
                 DRN =           0.0000                   DRN =           0.0000     DRN_0           
                 RCH = 17658888779.5277                   RCH =    12752905.5797     RCH_0           

            TOTAL IN = 24797037006.3181              TOTAL IN =    30025163.1872

          OUT:                                     OUT:
          ----                                     ----
              STO-SS =           0.0000                STO-SS =           0.0000     STORAGE         
              STO-SY =  4320268430.4599                STO-SY =     2990008.5939     STORAGE         
                 WEL =  3035201274.4830                   WEL =    14784312.8736     WEL_0           
                 DRN = 17441560505.2579                   DRN =    12250830.5793     DRN_0           
                 RCH =           0.0000                   RCH =           0.0000     RCH_0           

           TOTAL OUT = 24797030210.2008             TOTAL OUT =    30025152.0468

            IN - OUT =        6796.1173              IN - OUT =          11.1404

 PERCENT DISCREPANCY =           0.00     PERCENT DISCREPANCY =           0.00




         TIME SUMMARY AT END OF TIME STEP    1 IN STRESS PERIOD  323
                          TIME STEP LENGTH =    1.00000    
                        STRESS PERIOD TIME =    1.00000    
                     TOTAL SIMULATION TIME =    323.000    

end timestep


start timestep kper="324" kstp="1" mode="normal"


 OUTPUT CONTROL FOR STRESS PERIOD 324 IS REPEATED USING SETTINGS FROM A PREVIOUS STRESS PERIOD.


 STRESS PERIOD 324 IS TRANSIENT


 REUSING WELS FROM LAST STRESS PERIOD

 REUSING DRNS FROM LAST STRESS PERIOD

 REUSING RCHS FROM LAST STRESS PERIOD


  VOLUME BUDGET FOR ENTIRE MODEL AT END OF TIME STEP    1, STRESS PERIOD 324
  ---------------------------------------------------------------------------------------------------

     CUMULATIVE VOLUME      L**3       RATES FOR THIS TIME STEP      L**3/T          PACKAGE NAME    
     ------------------                 ------------------------                     ----------------

           IN:                                      IN:
           ---                                      ---
              STO-SS =           0.0000                STO-SS =           0.0000     STORAGE         
              STO-SY =  7150591999.5824                STO-SY =    12443772.7920     STORAGE         
                 WEL =           0.0000                   WEL =           0.0000     WEL_0           
                 DRN =           0.0000                   DRN =           0.0000     DRN_0           
                 RCH = 17669770454.8266                   RCH =    10881675.2989     RCH_0           

            TOTAL IN = 24820362454.4090              TOTAL IN =    23325448.0908

          OUT:                                     OUT:
          ----                                     ----
              STO-SS =           0.0000                STO-SS =           0.0000     STORAGE         
              STO-SY =  4323379910.4851                STO-SY =     3111480.0252     STORAGE         
                 WEL =  3041782597.2236                   WEL =     6581322.7406     WEL_0           
                 DRN = 17455193121.4031                   DRN =    13632616.1452     DRN_0           
                 RCH =           0.0000                   RCH =           0.0000     RCH_0           

           TOTAL OUT = 24820355629.1118             TOTAL OUT =    23325418.9110

            IN - OUT =        6825.2971              IN - OUT =          29.1798

 PERCENT DISCREPANCY =           0.00     PERCENT DISCREPANCY =           0.00




         TIME SUMMARY AT END OF TIME STEP    1 IN STRESS PERIOD  324
                          TIME STEP LENGTH =    1.00000    
                        STRESS PERIOD TIME =    1.00000    
                     TOTAL SIMULATION TIME =    324.000    

end timestep


start timestep kper="325" kstp="1" mode="normal"


 OUTPUT CONTROL FOR STRESS PERIOD 325 IS REPEATED USING SETTINGS FROM A PREVIOUS STRESS PERIOD.


 STRESS PERIOD 325 IS TRANSIENT


 REUSING WELS FROM LAST STRESS PERIOD

 REUSING DRNS FROM LAST STRESS PERIOD

 REUSING RCHS FROM LAST STRESS PERIOD


  VOLUME BUDGET FOR ENTIRE MODEL AT END OF TIME STEP    1, STRESS PERIOD 325
  ---------------------------------------------------------------------------------------------------

     CUMULATIVE VOLUME      L**3       RATES FOR THIS TIME STEP      L**3/T          PACKAGE NAME    
     ------------------                 ------------------------                     ----------------

           IN:                                      IN:
           ---                                      ---
              STO-SS =           0.0000                STO-SS =           0.0000     STORAGE         
              STO-SY =  7160411578.7646                STO-SY =     9819579.1822     STORAGE         
                 WEL =           0.0000                   WEL =           0.0000     WEL_0           
                 DRN =           0.0000                   DRN =           0.0000     DRN_0           
                 RCH = 17684657207.5388                   RCH =    14886752.7122     RCH_0           

            TOTAL IN = 24845068786.3034              TOTAL IN =    24706331.8944

          OUT:                                     OUT:
          ----                                     ----
              STO-SS =           0.0000                STO-SS =           0.0000     STORAGE         
              STO-SY =  4329938844.2173                STO-SY =     6558933.7322     STORAGE         
                 WEL =  3047550142.1885                   WEL =     5767544.9649     WEL_0           
                 DRN = 17467572968.7445                   DRN =    12379847.3414     DRN_0           
                 RCH =           0.0000                   RCH =           0.0000     RCH_0           

           TOTAL OUT = 24845061955.1503             TOTAL OUT =    24706326.0385

            IN - OUT =        6831.1531              IN - OUT =           5.8559

 PERCENT DISCREPANCY =           0.00     PERCENT DISCREPANCY =           0.00




         TIME SUMMARY AT END OF TIME STEP    1 IN STRESS PERIOD  325
                          TIME STEP LENGTH =    1.00000    
                        STRESS PERIOD TIME =    1.00000    
                     TOTAL SIMULATION TIME =    325.000    

end timestep


start timestep kper="326" kstp="1" mode="normal"


 OUTPUT CONTROL FOR STRESS PERIOD 326 IS REPEATED USING SETTINGS FROM A PREVIOUS STRESS PERIOD.


 STRESS PERIOD 326 IS TRANSIENT


 REUSING WELS FROM LAST STRESS PERIOD

 REUSING DRNS FROM LAST STRESS PERIOD

 REUSING RCHS FROM LAST STRESS PERIOD


  VOLUME BUDGET FOR ENTIRE MODEL AT END OF TIME STEP    1, STRESS PERIOD 326
  ---------------------------------------------------------------------------------------------------

     CUMULATIVE VOLUME      L**3       RATES FOR THIS TIME STEP      L**3/T          PACKAGE NAME    
     ------------------                 ------------------------                     ----------------

           IN:                                      IN:
           ---                                      ---
              STO-SS =           0.0000                STO-SS =           0.0000     STORAGE         
              STO-SY =  7175134534.1591                STO-SY =    14722955.3945     STORAGE         
                 WEL =           0.0000                   WEL =           0.0000     WEL_0           
                 DRN =           0.0000                   DRN =           0.0000     DRN_0           
                 RCH = 17698052596.0444                   RCH =    13395388.5056     RCH_0           

            TOTAL IN = 24873187130.2035              TOTAL IN =    28118343.9001

          OUT:                                     OUT:
          ----                                     ----
              STO-SS =           0.0000                STO-SS =           0.0000     STORAGE         
              STO-SY =  4333704066.1973                STO-SY =     3765221.9800     STORAGE         
                 WEL =  3057789080.7845                   WEL =    10238938.5959     WEL_0           
                 DRN = 17481687151.8918                   DRN =    14114183.1473     DRN_0           
                 RCH =           0.0000                   RCH =           0.0000     RCH_0           

           TOTAL OUT = 24873180298.8736             TOTAL OUT =    28118343.7232

            IN - OUT =        6831.3299              IN - OUT =           0.1769

 PERCENT DISCREPANCY =           0.00     PERCENT DISCREPANCY =           0.00




         TIME SUMMARY AT END OF TIME STEP    1 IN STRESS PERIOD  326
                          TIME STEP LENGTH =    1.00000    
                        STRESS PERIOD TIME =    1.00000    
                     TOTAL SIMULATION TIME =    326.000    

end timestep


start timestep kper="327" kstp="1" mode="normal"


 OUTPUT CONTROL FOR STRESS PERIOD 327 IS REPEATED USING SETTINGS FROM A PREVIOUS STRESS PERIOD.


 STRESS PERIOD 327 IS TRANSIENT


 REUSING WELS FROM LAST STRESS PERIOD

 REUSING DRNS FROM LAST STRESS PERIOD

 REUSING RCHS FROM LAST STRESS PERIOD


  VOLUME BUDGET FOR ENTIRE MODEL AT END OF TIME STEP    1, STRESS PERIOD 327
  ---------------------------------------------------------------------------------------------------

     CUMULATIVE VOLUME      L**3       RATES FOR THIS TIME STEP      L**3/T          PACKAGE NAME    
     ------------------                 ------------------------                     ----------------

           IN:                                      IN:
           ---                                      ---
              STO-SS =           0.0000                STO-SS =           0.0000     STORAGE         
              STO-SY =  7192871557.1617                STO-SY =    17737023.0027     STORAGE         
                 WEL =           0.0000                   WEL =           0.0000     WEL_0           
                 DRN =           0.0000                   DRN =           0.0000     DRN_0           
                 RCH = 17710270229.0529                   RCH =    12217633.0084     RCH_0           

            TOTAL IN = 24903141786.2146              TOTAL IN =    29954656.0111

          OUT:                                     OUT:
          ----                                     ----
              STO-SS =           0.0000                STO-SS =           0.0000     STORAGE         
              STO-SY =  4337022792.3890                STO-SY =     3318726.1917     STORAGE         
                 WEL =  3072340074.0631                   WEL =    14550993.2786     WEL_0           
                 DRN = 17493772084.0901                   DRN =    12084932.1984     DRN_0           
                 RCH =           0.0000                   RCH =           0.0000     RCH_0           

           TOTAL OUT = 24903134950.5422             TOTAL OUT =    29954651.6686

            IN - OUT =        6835.6724              IN - OUT =           4.3424

 PERCENT DISCREPANCY =           0.00     PERCENT DISCREPANCY =           0.00




         TIME SUMMARY AT END OF TIME STEP    1 IN STRESS PERIOD  327
                          TIME STEP LENGTH =    1.00000    
                        STRESS PERIOD TIME =    1.00000    
                     TOTAL SIMULATION TIME =    327.000    

end timestep


start timestep kper="328" kstp="1" mode="normal"


 OUTPUT CONTROL FOR STRESS PERIOD 328 IS REPEATED USING SETTINGS FROM A PREVIOUS STRESS PERIOD.


 STRESS PERIOD 328 IS TRANSIENT


 REUSING WELS FROM LAST STRESS PERIOD

 REUSING DRNS FROM LAST STRESS PERIOD

 REUSING RCHS FROM LAST STRESS PERIOD


  VOLUME BUDGET FOR ENTIRE MODEL AT END OF TIME STEP    1, STRESS PERIOD 328
  ---------------------------------------------------------------------------------------------------

     CUMULATIVE VOLUME      L**3       RATES FOR THIS TIME STEP      L**3/T          PACKAGE NAME    
     ------------------                 ------------------------                     ----------------

           IN:                                      IN:
           ---                                      ---
              STO-SS =           0.0000                STO-SS =           0.0000     STORAGE         
              STO-SY =  7212143934.2760                STO-SY =    19272377.1143     STORAGE         
                 WEL =           0.0000                   WEL =           0.0000     WEL_0           
                 DRN =           0.0000                   DRN =           0.0000     DRN_0           
                 RCH = 17724657317.4816                   RCH =    14387088.4288     RCH_0           

            TOTAL IN = 24936801251.7576              TOTAL IN =    33659465.5430

          OUT:                                     OUT:
          ----                                     ----
              STO-SS =           0.0000                STO-SS =           0.0000     STORAGE         
              STO-SY =  4340052602.9091                STO-SY =     3029810.5201     STORAGE         
                 WEL =  3089322240.8103                   WEL =    16982166.7473     WEL_0           
                 DRN = 17507419529.0485                   DRN =    13647444.9583     DRN_0           
                 RCH =           0.0000                   RCH =           0.0000     RCH_0           

           TOTAL OUT = 24936794372.7679             TOTAL OUT =    33659422.2257

            IN - OUT =        6878.9897              IN - OUT =          43.3173

 PERCENT DISCREPANCY =           0.00     PERCENT DISCREPANCY =           0.00




         TIME SUMMARY AT END OF TIME STEP    1 IN STRESS PERIOD  328
                          TIME STEP LENGTH =    1.00000    
                        STRESS PERIOD TIME =    1.00000    
                     TOTAL SIMULATION TIME =    328.000    

end timestep


start timestep kper="329" kstp="1" mode="normal"


 OUTPUT CONTROL FOR STRESS PERIOD 329 IS REPEATED USING SETTINGS FROM A PREVIOUS STRESS PERIOD.


 STRESS PERIOD 329 IS TRANSIENT


 REUSING WELS FROM LAST STRESS PERIOD

 REUSING DRNS FROM LAST STRESS PERIOD

 REUSING RCHS FROM LAST STRESS PERIOD


  VOLUME BUDGET FOR ENTIRE MODEL AT END OF TIME STEP    1, STRESS PERIOD 329
  ---------------------------------------------------------------------------------------------------

     CUMULATIVE VOLUME      L**3       RATES FOR THIS TIME STEP      L**3/T          PACKAGE NAME    
     ------------------                 ------------------------                     ----------------

           IN:                                      IN:
           ---                                      ---
              STO-SS =           0.0000                STO-SS =           0.0000     STORAGE         
              STO-SY =  7228801871.2531                STO-SY =    16657936.9771     STORAGE         
                 WEL =           0.0000                   WEL =           0.0000     WEL_0           
                 DRN =           0.0000                   DRN =           0.0000     DRN_0           
                 RCH = 17735085532.1675                   RCH =    10428214.6858     RCH_0           

            TOTAL IN = 24963887403.4206              TOTAL IN =    27086151.6630

          OUT:                                     OUT:
          ----                                     ----
              STO-SS =           0.0000                STO-SS =           0.0000     STORAGE         
              STO-SY =  4342666970.4225                STO-SY =     2614367.5134     STORAGE         
                 WEL =  3101989573.8595                   WEL =    12667333.0492     WEL_0           
                 DRN = 17519223960.5541                   DRN =    11804431.5057     DRN_0           
                 RCH =           0.0000                   RCH =           0.0000     RCH_0           

           TOTAL OUT = 24963880504.8362             TOTAL OUT =    27086132.0683

            IN - OUT =        6898.5844              IN - OUT =          19.5947

 PERCENT DISCREPANCY =           0.00     PERCENT DISCREPANCY =           0.00




         TIME SUMMARY AT END OF TIME STEP    1 IN STRESS PERIOD  329
                          TIME STEP LENGTH =    1.00000    
                        STRESS PERIOD TIME =    1.00000    
                     TOTAL SIMULATION TIME =    329.000    

end timestep


start timestep kper="330" kstp="1" mode="normal"


 OUTPUT CONTROL FOR STRESS PERIOD 330 IS REPEATED USING SETTINGS FROM A PREVIOUS STRESS PERIOD.


 STRESS PERIOD 330 IS TRANSIENT


 REUSING WELS FROM LAST STRESS PERIOD

 REUSING DRNS FROM LAST STRESS PERIOD

 REUSING RCHS FROM LAST STRESS PERIOD


  VOLUME BUDGET FOR ENTIRE MODEL AT END OF TIME STEP    1, STRESS PERIOD 330
  ---------------------------------------------------------------------------------------------------

     CUMULATIVE VOLUME      L**3       RATES FOR THIS TIME STEP      L**3/T          PACKAGE NAME    
     ------------------                 ------------------------                     ----------------

           IN:                                      IN:
           ---                                      ---
              STO-SS =           0.0000                STO-SS =           0.0000     STORAGE         
              STO-SY =  7246244499.3897                STO-SY =    17442628.1366     STORAGE         
                 WEL =           0.0000                   WEL =           0.0000     WEL_0           
                 DRN =           0.0000                   DRN =           0.0000     DRN_0           
                 RCH = 17748103147.7562                   RCH =    13017615.5887     RCH_0           

            TOTAL IN = 24994347647.1460              TOTAL IN =    30460243.7254

          OUT:                                     OUT:
          ----                                     ----
              STO-SS =           0.0000                STO-SS =           0.0000     STORAGE         
              STO-SY =  4345297944.1092                STO-SY =     2630973.6866     STORAGE         
                 WEL =  3116645222.3343                   WEL =    14655648.4748     WEL_0           
                 DRN = 17532397550.5025                   DRN =    13173589.9484     DRN_0           
                 RCH =           0.0000                   RCH =           0.0000     RCH_0           

           TOTAL OUT = 24994340716.9461             TOTAL OUT =    30460212.1099

            IN - OUT =        6930.1999              IN - OUT =          31.6155

 PERCENT DISCREPANCY =           0.00     PERCENT DISCREPANCY =           0.00




         TIME SUMMARY AT END OF TIME STEP    1 IN STRESS PERIOD  330
                          TIME STEP LENGTH =    1.00000    
                        STRESS PERIOD TIME =    1.00000    
                     TOTAL SIMULATION TIME =    330.000    

end timestep


start timestep kper="331" kstp="1" mode="normal"


 OUTPUT CONTROL FOR STRESS PERIOD 331 IS REPEATED USING SETTINGS FROM A PREVIOUS STRESS PERIOD.


 STRESS PERIOD 331 IS TRANSIENT


 REUSING WELS FROM LAST STRESS PERIOD

 REUSING DRNS FROM LAST STRESS PERIOD

 REUSING RCHS FROM LAST STRESS PERIOD


  VOLUME BUDGET FOR ENTIRE MODEL AT END OF TIME STEP    1, STRESS PERIOD 331
  ---------------------------------------------------------------------------------------------------

     CUMULATIVE VOLUME      L**3       RATES FOR THIS TIME STEP      L**3/T          PACKAGE NAME    
     ------------------                 ------------------------                     ----------------

           IN:                                      IN:
           ---                                      ---
              STO-SS =           0.0000                STO-SS =           0.0000     STORAGE         
              STO-SY =  7260615153.0161                STO-SY =    14370653.6264     STORAGE         
                 WEL =           0.0000                   WEL =           0.0000     WEL_0           
                 DRN =           0.0000                   DRN =           0.0000     DRN_0           
                 RCH = 17758128398.2826                   RCH =    10025250.5264     RCH_0           

            TOTAL IN = 25018743551.2988              TOTAL IN =    24395904.1528

          OUT:                                     OUT:
          ----                                     ----
              STO-SS =           0.0000                STO-SS =           0.0000     STORAGE         
              STO-SY =  4348298000.3683                STO-SY =     3000056.2591     STORAGE         
                 WEL =  3126237547.9690                   WEL =     9592325.6347     WEL_0           
                 DRN = 17544201076.2611                   DRN =    11803525.7586     DRN_0           
                 RCH =           0.0000                   RCH =           0.0000     RCH_0           

           TOTAL OUT = 25018736624.5985             TOTAL OUT =    24395907.6524

            IN - OUT =        6926.7003              IN - OUT =          -3.4996

 PERCENT DISCREPANCY =           0.00     PERCENT DISCREPANCY =          -0.00




         TIME SUMMARY AT END OF TIME STEP    1 IN STRESS PERIOD  331
                          TIME STEP LENGTH =    1.00000    
                        STRESS PERIOD TIME =    1.00000    
                     TOTAL SIMULATION TIME =    331.000    

end timestep


start timestep kper="332" kstp="1" mode="normal"


 OUTPUT CONTROL FOR STRESS PERIOD 332 IS REPEATED USING SETTINGS FROM A PREVIOUS STRESS PERIOD.


 STRESS PERIOD 332 IS TRANSIENT


 REUSING WELS FROM LAST STRESS PERIOD

 REUSING DRNS FROM LAST STRESS PERIOD

 REUSING RCHS FROM LAST STRESS PERIOD


  VOLUME BUDGET FOR ENTIRE MODEL AT END OF TIME STEP    1, STRESS PERIOD 332
  ---------------------------------------------------------------------------------------------------

     CUMULATIVE VOLUME      L**3       RATES FOR THIS TIME STEP      L**3/T          PACKAGE NAME    
     ------------------                 ------------------------                     ----------------

           IN:                                      IN:
           ---                                      ---
              STO-SS =           0.0000                STO-SS =           0.0000     STORAGE         
              STO-SY =  7281616016.6805                STO-SY =    21000863.6644     STORAGE         
                 WEL =           0.0000                   WEL =           0.0000     WEL_0           
                 DRN =           0.0000                   DRN =           0.0000     DRN_0           
                 RCH = 17773628679.7967                   RCH =    15500281.5141     RCH_0           

            TOTAL IN = 25055244696.4772              TOTAL IN =    36501145.1784

          OUT:                                     OUT:
          ----                                     ----
              STO-SS =           0.0000                STO-SS =           0.0000     STORAGE         
              STO-SY =  4351442110.0679                STO-SY =     3144109.6996     STORAGE         
                 WEL =  3146362533.4604                   WEL =    20124985.4914     WEL_0           
                 DRN = 17557433100.4834                   DRN =    13232024.2223     DRN_0           
                 RCH =           0.0000                   RCH =           0.0000     RCH_0           

           TOTAL OUT = 25055237744.0116             TOTAL OUT =    36501119.4132

            IN - OUT =        6952.4656              IN - OUT =          25.7653

 PERCENT DISCREPANCY =           0.00     PERCENT DISCREPANCY =           0.00




         TIME SUMMARY AT END OF TIME STEP    1 IN STRESS PERIOD  332
                          TIME STEP LENGTH =    1.00000    
                        STRESS PERIOD TIME =    1.00000    
                     TOTAL SIMULATION TIME =    332.000    

end timestep


start timestep kper="333" kstp="1" mode="normal"


 OUTPUT CONTROL FOR STRESS PERIOD 333 IS REPEATED USING SETTINGS FROM A PREVIOUS STRESS PERIOD.


 STRESS PERIOD 333 IS TRANSIENT


 REUSING WELS FROM LAST STRESS PERIOD

 REUSING DRNS FROM LAST STRESS PERIOD

 REUSING RCHS FROM LAST STRESS PERIOD


  VOLUME BUDGET FOR ENTIRE MODEL AT END OF TIME STEP    1, STRESS PERIOD 333
  ---------------------------------------------------------------------------------------------------

     CUMULATIVE VOLUME      L**3       RATES FOR THIS TIME STEP      L**3/T          PACKAGE NAME    
     ------------------                 ------------------------                     ----------------

           IN:                                      IN:
           ---                                      ---
              STO-SS =           0.0000                STO-SS =           0.0000     STORAGE         
              STO-SY =  7299747877.1997                STO-SY =    18131860.5192     STORAGE         
                 WEL =           0.0000                   WEL =           0.0000     WEL_0           
                 DRN =           0.0000                   DRN =           0.0000     DRN_0           
                 RCH = 17784537413.5331                   RCH =    10908733.7364     RCH_0           

            TOTAL IN = 25084285290.7328              TOTAL IN =    29040594.2556

          OUT:                                     OUT:
          ----                                     ----
              STO-SS =           0.0000                STO-SS =           0.0000     STORAGE         
              STO-SY =  4353793642.5351                STO-SY =     2351532.4672     STORAGE         
                 WEL =  3161802850.8065                   WEL =    15440317.3461     WEL_0           
                 DRN = 17568681885.3247                   DRN =    11248784.8413     DRN_0           
                 RCH =           0.0000                   RCH =           0.0000     RCH_0           

           TOTAL OUT = 25084278378.6663             TOTAL OUT =    29040634.6546

            IN - OUT =        6912.0665              IN - OUT =         -40.3991

 PERCENT DISCREPANCY =           0.00     PERCENT DISCREPANCY =          -0.00




         TIME SUMMARY AT END OF TIME STEP    1 IN STRESS PERIOD  333
                          TIME STEP LENGTH =    1.00000    
                        STRESS PERIOD TIME =    1.00000    
                     TOTAL SIMULATION TIME =    333.000    

end timestep


start timestep kper="334" kstp="1" mode="normal"


 OUTPUT CONTROL FOR STRESS PERIOD 334 IS REPEATED USING SETTINGS FROM A PREVIOUS STRESS PERIOD.


 STRESS PERIOD 334 IS TRANSIENT


 REUSING WELS FROM LAST STRESS PERIOD

 REUSING DRNS FROM LAST STRESS PERIOD

 REUSING RCHS FROM LAST STRESS PERIOD


  VOLUME BUDGET FOR ENTIRE MODEL AT END OF TIME STEP    1, STRESS PERIOD 334
  ---------------------------------------------------------------------------------------------------

     CUMULATIVE VOLUME      L**3       RATES FOR THIS TIME STEP      L**3/T          PACKAGE NAME    
     ------------------                 ------------------------                     ----------------

           IN:                                      IN:
           ---                                      ---
              STO-SS =           0.0000                STO-SS =           0.0000     STORAGE         
              STO-SY =  7320992329.7421                STO-SY =    21244452.5425     STORAGE         
                 WEL =           0.0000                   WEL =           0.0000     WEL_0           
                 DRN =           0.0000                   DRN =           0.0000     DRN_0           
                 RCH = 17797605014.4642                   RCH =    13067600.9311     RCH_0           

            TOTAL IN = 25118597344.2064              TOTAL IN =    34312053.4736

          OUT:                                     OUT:
          ----                                     ----
              STO-SS =           0.0000                STO-SS =           0.0000     STORAGE         
              STO-SY =  4356139387.2992                STO-SY =     2345744.7641     STORAGE         
                 WEL =  3181165245.5778                   WEL =    19362394.7713     WEL_0           
                 DRN = 17581285785.3630                   DRN =    12603900.0383     DRN_0           
                 RCH =           0.0000                   RCH =           0.0000     RCH_0           

           TOTAL OUT = 25118590418.2400             TOTAL OUT =    34312039.5737

            IN - OUT =        6925.9664              IN - OUT =          13.8999

 PERCENT DISCREPANCY =           0.00     PERCENT DISCREPANCY =           0.00




         TIME SUMMARY AT END OF TIME STEP    1 IN STRESS PERIOD  334
                          TIME STEP LENGTH =    1.00000    
                        STRESS PERIOD TIME =    1.00000    
                     TOTAL SIMULATION TIME =    334.000    

end timestep


start timestep kper="335" kstp="1" mode="normal"


 OUTPUT CONTROL FOR STRESS PERIOD 335 IS REPEATED USING SETTINGS FROM A PREVIOUS STRESS PERIOD.


 STRESS PERIOD 335 IS TRANSIENT


 REUSING WELS FROM LAST STRESS PERIOD

 REUSING DRNS FROM LAST STRESS PERIOD

 REUSING RCHS FROM LAST STRESS PERIOD


  VOLUME BUDGET FOR ENTIRE MODEL AT END OF TIME STEP    1, STRESS PERIOD 335
  ---------------------------------------------------------------------------------------------------

     CUMULATIVE VOLUME      L**3       RATES FOR THIS TIME STEP      L**3/T          PACKAGE NAME    
     ------------------                 ------------------------                     ----------------

           IN:                                      IN:
           ---                                      ---
              STO-SS =           0.0000                STO-SS =           0.0000     STORAGE         
              STO-SY =  7338400817.5219                STO-SY =    17408487.7797     STORAGE         
                 WEL =           0.0000                   WEL =           0.0000     WEL_0           
                 DRN =           0.0000                   DRN =           0.0000     DRN_0           
                 RCH = 17807786119.6203                   RCH =    10181105.1561     RCH_0           

            TOTAL IN = 25146186937.1421              TOTAL IN =    27589592.9358

          OUT:                                     OUT:
          ----                                     ----
              STO-SS =           0.0000                STO-SS =           0.0000     STORAGE         
              STO-SY =  4358483389.8548                STO-SY =     2344002.5556     STORAGE         
                 WEL =  3195202843.1107                   WEL =    14037597.5329     WEL_0           
                 DRN = 17592493778.9353                   DRN =    11207993.5724     DRN_0           
                 RCH =           0.0000                   RCH =           0.0000     RCH_0           

           TOTAL OUT = 25146180011.9009             TOTAL OUT =    27589593.6609

            IN - OUT =        6925.2413              IN - OUT =          -0.7251

 PERCENT DISCREPANCY =           0.00     PERCENT DISCREPANCY =          -0.00




         TIME SUMMARY AT END OF TIME STEP    1 IN STRESS PERIOD  335
                          TIME STEP LENGTH =    1.00000    
                        STRESS PERIOD TIME =    1.00000    
                     TOTAL SIMULATION TIME =    335.000    

end timestep


start timestep kper="336" kstp="1" mode="normal"


 OUTPUT CONTROL FOR STRESS PERIOD 336 IS REPEATED USING SETTINGS FROM A PREVIOUS STRESS PERIOD.


 STRESS PERIOD 336 IS TRANSIENT


 REUSING WELS FROM LAST STRESS PERIOD

 REUSING DRNS FROM LAST STRESS PERIOD

 REUSING RCHS FROM LAST STRESS PERIOD


  VOLUME BUDGET FOR ENTIRE MODEL AT END OF TIME STEP    1, STRESS PERIOD 336
  ---------------------------------------------------------------------------------------------------

     CUMULATIVE VOLUME      L**3       RATES FOR THIS TIME STEP      L**3/T          PACKAGE NAME    
     ------------------                 ------------------------                     ----------------

           IN:                                      IN:
           ---                                      ---
              STO-SS =           0.0000                STO-SS =           0.0000     STORAGE         
              STO-SY =  7354665531.3575                STO-SY =    16264713.8356     STORAGE         
                 WEL =           0.0000                   WEL =           0.0000     WEL_0           
                 DRN =           0.0000                   DRN =           0.0000     DRN_0           
                 RCH = 17819170814.8161                   RCH =    11384695.1958     RCH_0           

            TOTAL IN = 25173836346.1736              TOTAL IN =    27649409.0314

          OUT:                                     OUT:
          ----                                     ----
              STO-SS =           0.0000                STO-SS =           0.0000     STORAGE         
              STO-SY =  4360867229.2949                STO-SY =     2383839.4401     STORAGE         
                 WEL =  3208016552.3684                   WEL =    12813709.2577     WEL_0           
                 DRN = 17604945643.8226                   DRN =    12451864.8873     DRN_0           
                 RCH =           0.0000                   RCH =           0.0000     RCH_0           

           TOTAL OUT = 25173829425.4859             TOTAL OUT =    27649413.5851

            IN - OUT =        6920.6876              IN - OUT =          -4.5536

 PERCENT DISCREPANCY =           0.00     PERCENT DISCREPANCY =          -0.00




         TIME SUMMARY AT END OF TIME STEP    1 IN STRESS PERIOD  336
                          TIME STEP LENGTH =    1.00000    
                        STRESS PERIOD TIME =    1.00000    
                     TOTAL SIMULATION TIME =    336.000    

end timestep


start timestep kper="337" kstp="1" mode="normal"


 OUTPUT CONTROL FOR STRESS PERIOD 337 IS REPEATED USING SETTINGS FROM A PREVIOUS STRESS PERIOD.


 STRESS PERIOD 337 IS TRANSIENT


 REUSING WELS FROM LAST STRESS PERIOD

 REUSING DRNS FROM LAST STRESS PERIOD

 REUSING RCHS FROM LAST STRESS PERIOD


  VOLUME BUDGET FOR ENTIRE MODEL AT END OF TIME STEP    1, STRESS PERIOD 337
  ---------------------------------------------------------------------------------------------------

     CUMULATIVE VOLUME      L**3       RATES FOR THIS TIME STEP      L**3/T          PACKAGE NAME    
     ------------------                 ------------------------                     ----------------

           IN:                                      IN:
           ---                                      ---
              STO-SS =           0.0000                STO-SS =           0.0000     STORAGE         
              STO-SY =  7369871200.3264                STO-SY =    15205668.9689     STORAGE         
                 WEL =           0.0000                   WEL =           0.0000     WEL_0           
                 DRN =           0.0000                   DRN =           0.0000     DRN_0           
                 RCH = 17827847952.5991                   RCH =     8677137.7830     RCH_0           

            TOTAL IN = 25197719152.9255              TOTAL IN =    23882806.7519

          OUT:                                     OUT:
          ----                                     ----
              STO-SS =           0.0000                STO-SS =           0.0000     STORAGE         
              STO-SY =  4363200818.4735                STO-SY =     2333589.1786     STORAGE         
                 WEL =  3218604092.6564                   WEL =    10587540.2880     WEL_0           
                 DRN = 17615907314.6364                   DRN =    10961670.8138     DRN_0           
                 RCH =           0.0000                   RCH =           0.0000     RCH_0           

           TOTAL OUT = 25197712225.7663             TOTAL OUT =    23882800.2804

            IN - OUT =        6927.1592              IN - OUT =           6.4716

 PERCENT DISCREPANCY =           0.00     PERCENT DISCREPANCY =           0.00




         TIME SUMMARY AT END OF TIME STEP    1 IN STRESS PERIOD  337
                          TIME STEP LENGTH =    1.00000    
                        STRESS PERIOD TIME =    1.00000    
                     TOTAL SIMULATION TIME =    337.000    

end timestep


start timestep kper="338" kstp="1" mode="normal"


 OUTPUT CONTROL FOR STRESS PERIOD 338 IS REPEATED USING SETTINGS FROM A PREVIOUS STRESS PERIOD.


 STRESS PERIOD 338 IS TRANSIENT


 REUSING WELS FROM LAST STRESS PERIOD

 REUSING DRNS FROM LAST STRESS PERIOD

 REUSING RCHS FROM LAST STRESS PERIOD


  VOLUME BUDGET FOR ENTIRE MODEL AT END OF TIME STEP    1, STRESS PERIOD 338
  ---------------------------------------------------------------------------------------------------

     CUMULATIVE VOLUME      L**3       RATES FOR THIS TIME STEP      L**3/T          PACKAGE NAME    
     ------------------                 ------------------------                     ----------------

           IN:                                      IN:
           ---                                      ---
              STO-SS =           0.0000                STO-SS =           0.0000     STORAGE         
              STO-SY =  7386761995.7066                STO-SY =    16890795.3802     STORAGE         
                 WEL =           0.0000                   WEL =           0.0000     WEL_0           
                 DRN =           0.0000                   DRN =           0.0000     DRN_0           
                 RCH = 17838928517.5542                   RCH =    11080564.9550     RCH_0           

            TOTAL IN = 25225690513.2607              TOTAL IN =    27971360.3353

          OUT:                                     OUT:
          ----                                     ----
              STO-SS =           0.0000                STO-SS =           0.0000     STORAGE         
              STO-SY =  4365523571.2791                STO-SY =     2322752.8056     STORAGE         
                 WEL =  3232223140.6328                   WEL =    13619047.9764     WEL_0           
                 DRN = 17627936874.3845                   DRN =    12029559.7481     DRN_0           
                 RCH =           0.0000                   RCH =           0.0000     RCH_0           

           TOTAL OUT = 25225683586.2965             TOTAL OUT =    27971360.5302

            IN - OUT =        6926.9642              IN - OUT =          -0.1949

 PERCENT DISCREPANCY =           0.00     PERCENT DISCREPANCY =          -0.00




         TIME SUMMARY AT END OF TIME STEP    1 IN STRESS PERIOD  338
                          TIME STEP LENGTH =    1.00000    
                        STRESS PERIOD TIME =    1.00000    
                     TOTAL SIMULATION TIME =    338.000    

end timestep


start timestep kper="339" kstp="1" mode="normal"


 OUTPUT CONTROL FOR STRESS PERIOD 339 IS REPEATED USING SETTINGS FROM A PREVIOUS STRESS PERIOD.


 STRESS PERIOD 339 IS TRANSIENT


 REUSING WELS FROM LAST STRESS PERIOD

 REUSING DRNS FROM LAST STRESS PERIOD

 REUSING RCHS FROM LAST STRESS PERIOD


  VOLUME BUDGET FOR ENTIRE MODEL AT END OF TIME STEP    1, STRESS PERIOD 339
  ---------------------------------------------------------------------------------------------------

     CUMULATIVE VOLUME      L**3       RATES FOR THIS TIME STEP      L**3/T          PACKAGE NAME    
     ------------------                 ------------------------                     ----------------

           IN:                                      IN:
           ---                                      ---
              STO-SS =           0.0000                STO-SS =           0.0000     STORAGE         
              STO-SY =  7402461262.4745                STO-SY =    15699266.7679     STORAGE         
                 WEL =           0.0000                   WEL =           0.0000     WEL_0           
                 DRN =           0.0000                   DRN =           0.0000     DRN_0           
                 RCH = 17848569111.6288                   RCH =     9640594.0746     RCH_0           

            TOTAL IN = 25251030374.1033              TOTAL IN =    25339860.8425

          OUT:                                     OUT:
          ----                                     ----
              STO-SS =           0.0000                STO-SS =           0.0000     STORAGE         
              STO-SY =  4368087694.8426                STO-SY =     2564123.5635     STORAGE         
                 WEL =  3244010084.4037                   WEL =    11786943.7709     WEL_0           
                 DRN = 17638925718.9342                   DRN =    10988844.5497     DRN_0           
                 RCH =           0.0000                   RCH =           0.0000     RCH_0           

           TOTAL OUT = 25251023498.1806             TOTAL OUT =    25339911.8841

            IN - OUT =        6875.9227              IN - OUT =         -51.0415

 PERCENT DISCREPANCY =           0.00     PERCENT DISCREPANCY =          -0.00




         TIME SUMMARY AT END OF TIME STEP    1 IN STRESS PERIOD  339
                          TIME STEP LENGTH =    1.00000    
                        STRESS PERIOD TIME =    1.00000    
                     TOTAL SIMULATION TIME =    339.000    

end timestep


start timestep kper="340" kstp="1" mode="normal"


 OUTPUT CONTROL FOR STRESS PERIOD 340 IS REPEATED USING SETTINGS FROM A PREVIOUS STRESS PERIOD.


 STRESS PERIOD 340 IS TRANSIENT


 REUSING WELS FROM LAST STRESS PERIOD

 REUSING DRNS FROM LAST STRESS PERIOD

 REUSING RCHS FROM LAST STRESS PERIOD


  VOLUME BUDGET FOR ENTIRE MODEL AT END OF TIME STEP    1, STRESS PERIOD 340
  ---------------------------------------------------------------------------------------------------

     CUMULATIVE VOLUME      L**3       RATES FOR THIS TIME STEP      L**3/T          PACKAGE NAME    
     ------------------                 ------------------------                     ----------------

           IN:                                      IN:
           ---                                      ---
              STO-SS =           0.0000                STO-SS =           0.0000     STORAGE         
              STO-SY =  7418394977.8162                STO-SY =    15933715.3417     STORAGE         
                 WEL =           0.0000                   WEL =           0.0000     WEL_0           
                 DRN =           0.0000                   DRN =           0.0000     DRN_0           
                 RCH = 17858184525.5591                   RCH =     9615413.9303     RCH_0           

            TOTAL IN = 25276579503.3753              TOTAL IN =    25549129.2720

          OUT:                                     OUT:
          ----                                     ----
              STO-SS =           0.0000                STO-SS =           0.0000     STORAGE         
              STO-SY =  4370359905.8267                STO-SY =     2272210.9841     STORAGE         
                 WEL =  3255717198.2410                   WEL =    11707113.8373     WEL_0           
                 DRN = 17650495494.7346                   DRN =    11569775.8004     DRN_0           
                 RCH =           0.0000                   RCH =           0.0000     RCH_0           

           TOTAL OUT = 25276572598.8023             TOTAL OUT =    25549100.6217

            IN - OUT =        6904.5730              IN - OUT =          28.6503

 PERCENT DISCREPANCY =           0.00     PERCENT DISCREPANCY =           0.00




         TIME SUMMARY AT END OF TIME STEP    1 IN STRESS PERIOD  340
                          TIME STEP LENGTH =    1.00000    
                        STRESS PERIOD TIME =    1.00000    
                     TOTAL SIMULATION TIME =    340.000    

end timestep


start timestep kper="341" kstp="1" mode="normal"


 OUTPUT CONTROL FOR STRESS PERIOD 341 IS REPEATED USING SETTINGS FROM A PREVIOUS STRESS PERIOD.


 STRESS PERIOD 341 IS TRANSIENT


 REUSING WELS FROM LAST STRESS PERIOD

 REUSING DRNS FROM LAST STRESS PERIOD

 REUSING RCHS FROM LAST STRESS PERIOD


  VOLUME BUDGET FOR ENTIRE MODEL AT END OF TIME STEP    1, STRESS PERIOD 341
  ---------------------------------------------------------------------------------------------------

     CUMULATIVE VOLUME      L**3       RATES FOR THIS TIME STEP      L**3/T          PACKAGE NAME    
     ------------------                 ------------------------                     ----------------

           IN:                                      IN:
           ---                                      ---
              STO-SS =           0.0000                STO-SS =           0.0000     STORAGE         
              STO-SY =  7432422279.5885                STO-SY =    14027301.7723     STORAGE         
                 WEL =           0.0000                   WEL =           0.0000     WEL_0           
                 DRN =           0.0000                   DRN =           0.0000     DRN_0           
                 RCH = 17865883397.9349                   RCH =     7698872.3758     RCH_0           

            TOTAL IN = 25298305677.5235              TOTAL IN =    21726174.1481

          OUT:                                     OUT:
          ----                                     ----
              STO-SS =           0.0000                STO-SS =           0.0000     STORAGE         
              STO-SY =  4372850692.1922                STO-SY =     2490786.3655     STORAGE         
                 WEL =  3264213498.8351                   WEL =     8496300.5941     WEL_0           
                 DRN = 17661234605.6873                   DRN =    10739110.9527     DRN_0           
                 RCH =           0.0000                   RCH =           0.0000     RCH_0           

           TOTAL OUT = 25298298796.7146             TOTAL OUT =    21726197.9123

            IN - OUT =        6880.8088              IN - OUT =         -23.7642

 PERCENT DISCREPANCY =           0.00     PERCENT DISCREPANCY =          -0.00




         TIME SUMMARY AT END OF TIME STEP    1 IN STRESS PERIOD  341
                          TIME STEP LENGTH =    1.00000    
                        STRESS PERIOD TIME =    1.00000    
                     TOTAL SIMULATION TIME =    341.000    

end timestep


start timestep kper="342" kstp="1" mode="normal"


 OUTPUT CONTROL FOR STRESS PERIOD 342 IS REPEATED USING SETTINGS FROM A PREVIOUS STRESS PERIOD.


 STRESS PERIOD 342 IS TRANSIENT


 REUSING WELS FROM LAST STRESS PERIOD

 REUSING DRNS FROM LAST STRESS PERIOD

 REUSING RCHS FROM LAST STRESS PERIOD


  VOLUME BUDGET FOR ENTIRE MODEL AT END OF TIME STEP    1, STRESS PERIOD 342
  ---------------------------------------------------------------------------------------------------

     CUMULATIVE VOLUME      L**3       RATES FOR THIS TIME STEP      L**3/T          PACKAGE NAME    
     ------------------                 ------------------------                     ----------------

           IN:                                      IN:
           ---                                      ---
              STO-SS =           0.0000                STO-SS =           0.0000     STORAGE         
              STO-SY =  7446186664.1277                STO-SY =    13764384.5392     STORAGE         
                 WEL =           0.0000                   WEL =           0.0000     WEL_0           
                 DRN =           0.0000                   DRN =           0.0000     DRN_0           
                 RCH = 17873704867.2969                   RCH =     7821469.3620     RCH_0           

            TOTAL IN = 25319891531.4246              TOTAL IN =    21585853.9012

          OUT:                                     OUT:
          ----                                     ----
              STO-SS =           0.0000                STO-SS =           0.0000     STORAGE         
              STO-SY =  4375158872.2465                STO-SY =     2308180.0543     STORAGE         
                 WEL =  3272267949.6030                   WEL =     8054450.7678     WEL_0           
                 DRN = 17672457801.4769                   DRN =    11223195.7897     DRN_0           
                 RCH =           0.0000                   RCH =           0.0000     RCH_0           

           TOTAL OUT = 25319884623.3264             TOTAL OUT =    21585826.6117

            IN - OUT =        6908.0983              IN - OUT =          27.2894

 PERCENT DISCREPANCY =           0.00     PERCENT DISCREPANCY =           0.00




         TIME SUMMARY AT END OF TIME STEP    1 IN STRESS PERIOD  342
                          TIME STEP LENGTH =    1.00000    
                        STRESS PERIOD TIME =    1.00000    
                     TOTAL SIMULATION TIME =    342.000    

end timestep


start timestep kper="343" kstp="1" mode="normal"


 OUTPUT CONTROL FOR STRESS PERIOD 343 IS REPEATED USING SETTINGS FROM A PREVIOUS STRESS PERIOD.


 STRESS PERIOD 343 IS TRANSIENT


 REUSING WELS FROM LAST STRESS PERIOD

 REUSING DRNS FROM LAST STRESS PERIOD

 REUSING RCHS FROM LAST STRESS PERIOD


  VOLUME BUDGET FOR ENTIRE MODEL AT END OF TIME STEP    1, STRESS PERIOD 343
  ---------------------------------------------------------------------------------------------------

     CUMULATIVE VOLUME      L**3       RATES FOR THIS TIME STEP      L**3/T          PACKAGE NAME    
     ------------------                 ------------------------                     ----------------

           IN:                                      IN:
           ---                                      ---
              STO-SS =           0.0000                STO-SS =           0.0000     STORAGE         
              STO-SY =  7459290809.8743                STO-SY =    13104145.7466     STORAGE         
                 WEL =           0.0000                   WEL =           0.0000     WEL_0           
                 DRN =           0.0000                   DRN =           0.0000     DRN_0           
                 RCH = 17883795718.5385                   RCH =    10090851.2416     RCH_0           

            TOTAL IN = 25343086528.4129              TOTAL IN =    23194996.9882

          OUT:                                     OUT:
          ----                                     ----
              STO-SS =           0.0000                STO-SS =           0.0000     STORAGE         
              STO-SY =  4378062073.1469                STO-SY =     2903200.9004     STORAGE         
                 WEL =  3281826702.1145                   WEL =     9558752.5115     WEL_0           
                 DRN = 17683190882.4730                   DRN =    10733080.9961     DRN_0           
                 RCH =           0.0000                   RCH =           0.0000     RCH_0           

           TOTAL OUT = 25343079657.7344             TOTAL OUT =    23195034.4080

            IN - OUT =        6870.6785              IN - OUT =         -37.4198

 PERCENT DISCREPANCY =           0.00     PERCENT DISCREPANCY =          -0.00




         TIME SUMMARY AT END OF TIME STEP    1 IN STRESS PERIOD  343
                          TIME STEP LENGTH =    1.00000    
                        STRESS PERIOD TIME =    1.00000    
                     TOTAL SIMULATION TIME =    343.000    

end timestep


start timestep kper="344" kstp="1" mode="normal"


 OUTPUT CONTROL FOR STRESS PERIOD 344 IS REPEATED USING SETTINGS FROM A PREVIOUS STRESS PERIOD.


 STRESS PERIOD 344 IS TRANSIENT


 REUSING WELS FROM LAST STRESS PERIOD

 REUSING DRNS FROM LAST STRESS PERIOD

 REUSING RCHS FROM LAST STRESS PERIOD


  VOLUME BUDGET FOR ENTIRE MODEL AT END OF TIME STEP    1, STRESS PERIOD 344
  ---------------------------------------------------------------------------------------------------

     CUMULATIVE VOLUME      L**3       RATES FOR THIS TIME STEP      L**3/T          PACKAGE NAME    
     ------------------                 ------------------------                     ----------------

           IN:                                      IN:
           ---                                      ---
              STO-SS =           0.0000                STO-SS =           0.0000     STORAGE         
              STO-SY =  7471208736.0838                STO-SY =    11917926.2094     STORAGE         
                 WEL =           0.0000                   WEL =           0.0000     WEL_0           
                 DRN =           0.0000                   DRN =           0.0000     DRN_0           
                 RCH = 17907433977.7274                   RCH =    23638259.1889     RCH_0           

            TOTAL IN = 25378642713.8112              TOTAL IN =    35556185.3983

          OUT:                                     OUT:
          ----                                     ----
              STO-SS =           0.0000                STO-SS =           0.0000     STORAGE         
              STO-SY =  4388178987.3014                STO-SY =    10116914.1545     STORAGE         
                 WEL =  3295350677.1697                   WEL =    13523975.0553     WEL_0           
                 DRN = 17695106163.0589                   DRN =    11915280.5859     DRN_0           
                 RCH =           0.0000                   RCH =           0.0000     RCH_0           

           TOTAL OUT = 25378635827.5301             TOTAL OUT =    35556169.7957

            IN - OUT =        6886.2812              IN - OUT =          15.6027

 PERCENT DISCREPANCY =           0.00     PERCENT DISCREPANCY =           0.00




         TIME SUMMARY AT END OF TIME STEP    1 IN STRESS PERIOD  344
                          TIME STEP LENGTH =    1.00000    
                        STRESS PERIOD TIME =    1.00000    
                     TOTAL SIMULATION TIME =    344.000    

end timestep


start timestep kper="345" kstp="1" mode="normal"


 OUTPUT CONTROL FOR STRESS PERIOD 345 IS REPEATED USING SETTINGS FROM A PREVIOUS STRESS PERIOD.


 STRESS PERIOD 345 IS TRANSIENT


 REUSING WELS FROM LAST STRESS PERIOD

 REUSING DRNS FROM LAST STRESS PERIOD

 REUSING RCHS FROM LAST STRESS PERIOD


  VOLUME BUDGET FOR ENTIRE MODEL AT END OF TIME STEP    1, STRESS PERIOD 345
  ---------------------------------------------------------------------------------------------------

     CUMULATIVE VOLUME      L**3       RATES FOR THIS TIME STEP      L**3/T          PACKAGE NAME    
     ------------------                 ------------------------                     ----------------

           IN:                                      IN:
           ---                                      ---
              STO-SS =           0.0000                STO-SS =           0.0000     STORAGE         
              STO-SY =  7481824516.3492                STO-SY =    10615780.2655     STORAGE         
                 WEL =           0.0000                   WEL =           0.0000     WEL_0           
                 DRN =           0.0000                   DRN =           0.0000     DRN_0           
                 RCH = 17919550721.1160                   RCH =    12116743.3886     RCH_0           

            TOTAL IN = 25401375237.4653              TOTAL IN =    22732523.6541

          OUT:                                     OUT:
          ----                                     ----
              STO-SS =           0.0000                STO-SS =           0.0000     STORAGE         
              STO-SY =  4393402013.0659                STO-SY =     5223025.7645     STORAGE         
                 WEL =  3302080679.5399                   WEL =     6730002.3701     WEL_0           
                 DRN = 17705885684.2897                   DRN =    10779521.2307     DRN_0           
                 RCH =           0.0000                   RCH =           0.0000     RCH_0           

           TOTAL OUT = 25401368376.8954             TOTAL OUT =    22732549.3653

            IN - OUT =        6860.5699              IN - OUT =         -25.7113

 PERCENT DISCREPANCY =           0.00     PERCENT DISCREPANCY =          -0.00




         TIME SUMMARY AT END OF TIME STEP    1 IN STRESS PERIOD  345
                          TIME STEP LENGTH =    1.00000    
                        STRESS PERIOD TIME =    1.00000    
                     TOTAL SIMULATION TIME =    345.000    

end timestep


start timestep kper="346" kstp="1" mode="normal"


 OUTPUT CONTROL FOR STRESS PERIOD 346 IS REPEATED USING SETTINGS FROM A PREVIOUS STRESS PERIOD.


 STRESS PERIOD 346 IS TRANSIENT


 REUSING WELS FROM LAST STRESS PERIOD

 REUSING DRNS FROM LAST STRESS PERIOD

 REUSING RCHS FROM LAST STRESS PERIOD


  VOLUME BUDGET FOR ENTIRE MODEL AT END OF TIME STEP    1, STRESS PERIOD 346
  ---------------------------------------------------------------------------------------------------

     CUMULATIVE VOLUME      L**3       RATES FOR THIS TIME STEP      L**3/T          PACKAGE NAME    
     ------------------                 ------------------------                     ----------------

           IN:                                      IN:
           ---                                      ---
              STO-SS =           0.0000                STO-SS =           0.0000     STORAGE         
              STO-SY =  7490313459.5652                STO-SY =     8488943.2159     STORAGE         
                 WEL =           0.0000                   WEL =           0.0000     WEL_0           
                 DRN =           0.0000                   DRN =           0.0000     DRN_0           
                 RCH = 17940945443.6679                   RCH =    21394722.5519     RCH_0           

            TOTAL IN = 25431258903.2331              TOTAL IN =    29883665.7678

          OUT:                                     OUT:
          ----                                     ----
              STO-SS =           0.0000                STO-SS =           0.0000     STORAGE         
              STO-SY =  4403883310.0174                STO-SY =    10481296.9516     STORAGE         
                 WEL =  3309373693.6480                   WEL =     7293014.1081     WEL_0           
                 DRN = 17717995029.3757                   DRN =    12109345.0861     DRN_0           
                 RCH =           0.0000                   RCH =           0.0000     RCH_0           

           TOTAL OUT = 25431252033.0412             TOTAL OUT =    29883656.1458

            IN - OUT =        6870.1919              IN - OUT =           9.6221

 PERCENT DISCREPANCY =           0.00     PERCENT DISCREPANCY =           0.00




         TIME SUMMARY AT END OF TIME STEP    1 IN STRESS PERIOD  346
                          TIME STEP LENGTH =    1.00000    
                        STRESS PERIOD TIME =    1.00000    
                     TOTAL SIMULATION TIME =    346.000    

end timestep


start timestep kper="347" kstp="1" mode="normal"


 OUTPUT CONTROL FOR STRESS PERIOD 347 IS REPEATED USING SETTINGS FROM A PREVIOUS STRESS PERIOD.


 STRESS PERIOD 347 IS TRANSIENT


 REUSING WELS FROM LAST STRESS PERIOD

 REUSING DRNS FROM LAST STRESS PERIOD

 REUSING RCHS FROM LAST STRESS PERIOD


  VOLUME BUDGET FOR ENTIRE MODEL AT END OF TIME STEP    1, STRESS PERIOD 347
  ---------------------------------------------------------------------------------------------------

     CUMULATIVE VOLUME      L**3       RATES FOR THIS TIME STEP      L**3/T          PACKAGE NAME    
     ------------------                 ------------------------                     ----------------

           IN:                                      IN:
           ---                                      ---
              STO-SS =           0.0000                STO-SS =           0.0000     STORAGE         
              STO-SY =  7498427831.8479                STO-SY =     8114372.2828     STORAGE         
                 WEL =           0.0000                   WEL =           0.0000     WEL_0           
                 DRN =           0.0000                   DRN =           0.0000     DRN_0           
                 RCH = 17974254020.8781                   RCH =    33308577.2102     RCH_0           

            TOTAL IN = 25472681852.7261              TOTAL IN =    41422949.4929

          OUT:                                     OUT:
          ----                                     ----
              STO-SS =           0.0000                STO-SS =           0.0000     STORAGE         
              STO-SY =  4426424390.7057                STO-SY =    22541080.6883     STORAGE         
                 WEL =  3316585121.8609                   WEL =     7211428.2129     WEL_0           
                 DRN = 17729665481.9270                   DRN =    11670452.5513     DRN_0           
                 RCH =           0.0000                   RCH =           0.0000     RCH_0           

           TOTAL OUT = 25472674994.4936             TOTAL OUT =    41422961.4524

            IN - OUT =        6858.2325              IN - OUT =         -11.9595

 PERCENT DISCREPANCY =           0.00     PERCENT DISCREPANCY =          -0.00




         TIME SUMMARY AT END OF TIME STEP    1 IN STRESS PERIOD  347
                          TIME STEP LENGTH =    1.00000    
                        STRESS PERIOD TIME =    1.00000    
                     TOTAL SIMULATION TIME =    347.000    

end timestep


start timestep kper="348" kstp="1" mode="normal"


 OUTPUT CONTROL FOR STRESS PERIOD 348 IS REPEATED USING SETTINGS FROM A PREVIOUS STRESS PERIOD.


 STRESS PERIOD 348 IS TRANSIENT


 REUSING WELS FROM LAST STRESS PERIOD

 REUSING DRNS FROM LAST STRESS PERIOD

 REUSING RCHS FROM LAST STRESS PERIOD


  VOLUME BUDGET FOR ENTIRE MODEL AT END OF TIME STEP    1, STRESS PERIOD 348
  ---------------------------------------------------------------------------------------------------

     CUMULATIVE VOLUME      L**3       RATES FOR THIS TIME STEP      L**3/T          PACKAGE NAME    
     ------------------                 ------------------------                     ----------------

           IN:                                      IN:
           ---                                      ---
              STO-SS =           0.0000                STO-SS =           0.0000     STORAGE         
              STO-SY =  7513813922.6076                STO-SY =    15386090.7597     STORAGE         
                 WEL =           0.0000                   WEL =           0.0000     WEL_0           
                 DRN =           0.0000                   DRN =           0.0000     DRN_0           
                 RCH = 17984830512.4326                   RCH =    10576491.5545     RCH_0           

            TOTAL IN = 25498644435.0402              TOTAL IN =    25962582.3142

          OUT:                                     OUT:
          ----                                     ----
              STO-SS =           0.0000                STO-SS =           0.0000     STORAGE         
              STO-SY =  4429084386.0192                STO-SY =     2659995.3135     STORAGE         
                 WEL =  3328224660.8505                   WEL =    11639538.9896     WEL_0           
                 DRN = 17741328507.7663                   DRN =    11663025.8393     DRN_0           
                 RCH =           0.0000                   RCH =           0.0000     RCH_0           

           TOTAL OUT = 25498637554.6360             TOTAL OUT =    25962560.1424

            IN - OUT =        6880.4042              IN - OUT =          22.1718

 PERCENT DISCREPANCY =           0.00     PERCENT DISCREPANCY =           0.00




         TIME SUMMARY AT END OF TIME STEP    1 IN STRESS PERIOD  348
                          TIME STEP LENGTH =    1.00000    
                        STRESS PERIOD TIME =    1.00000    
                     TOTAL SIMULATION TIME =    348.000    

end timestep


start timestep kper="349" kstp="1" mode="normal"


 OUTPUT CONTROL FOR STRESS PERIOD 349 IS REPEATED USING SETTINGS FROM A PREVIOUS STRESS PERIOD.


 STRESS PERIOD 349 IS TRANSIENT


 REUSING WELS FROM LAST STRESS PERIOD

 REUSING DRNS FROM LAST STRESS PERIOD

 REUSING RCHS FROM LAST STRESS PERIOD


  VOLUME BUDGET FOR ENTIRE MODEL AT END OF TIME STEP    1, STRESS PERIOD 349
  ---------------------------------------------------------------------------------------------------

     CUMULATIVE VOLUME      L**3       RATES FOR THIS TIME STEP      L**3/T          PACKAGE NAME    
     ------------------                 ------------------------                     ----------------

           IN:                                      IN:
           ---                                      ---
              STO-SS =           0.0000                STO-SS =           0.0000     STORAGE         
              STO-SY =  7531667617.5132                STO-SY =    17853694.9055     STORAGE         
                 WEL =           0.0000                   WEL =           0.0000     WEL_0           
                 DRN =           0.0000                   DRN =           0.0000     DRN_0           
                 RCH = 17995598054.0595                   RCH =    10767541.6269     RCH_0           

            TOTAL IN = 25527265671.5726              TOTAL IN =    28621236.5324

          OUT:                                     OUT:
          ----                                     ----
              STO-SS =           0.0000                STO-SS =           0.0000     STORAGE         
              STO-SY =  4431606940.1502                STO-SY =     2522554.1310     STORAGE         
                 WEL =  3343601334.4522                   WEL =    15376673.6017     WEL_0           
                 DRN = 17752050516.8815                   DRN =    10722009.1153     DRN_0           
                 RCH =           0.0000                   RCH =           0.0000     RCH_0           

           TOTAL OUT = 25527258791.4840             TOTAL OUT =    28621236.8480

            IN - OUT =        6880.0886              IN - OUT =          -0.3156

 PERCENT DISCREPANCY =           0.00     PERCENT DISCREPANCY =          -0.00




         TIME SUMMARY AT END OF TIME STEP    1 IN STRESS PERIOD  349
                          TIME STEP LENGTH =    1.00000    
                        STRESS PERIOD TIME =    1.00000    
                     TOTAL SIMULATION TIME =    349.000    

end timestep


start timestep kper="350" kstp="1" mode="normal"


 OUTPUT CONTROL FOR STRESS PERIOD 350 IS REPEATED USING SETTINGS FROM A PREVIOUS STRESS PERIOD.


 STRESS PERIOD 350 IS TRANSIENT


 REUSING WELS FROM LAST STRESS PERIOD

 REUSING DRNS FROM LAST STRESS PERIOD

 REUSING RCHS FROM LAST STRESS PERIOD


  VOLUME BUDGET FOR ENTIRE MODEL AT END OF TIME STEP    1, STRESS PERIOD 350
  ---------------------------------------------------------------------------------------------------

     CUMULATIVE VOLUME      L**3       RATES FOR THIS TIME STEP      L**3/T          PACKAGE NAME    
     ------------------                 ------------------------                     ----------------

           IN:                                      IN:
           ---                                      ---
              STO-SS =           0.0000                STO-SS =           0.0000     STORAGE         
              STO-SY =  7551346959.0964                STO-SY =    19679341.5833     STORAGE         
                 WEL =           0.0000                   WEL =           0.0000     WEL_0           
                 DRN =           0.0000                   DRN =           0.0000     DRN_0           
                 RCH = 18007049017.6799                   RCH =    11450963.6205     RCH_0           

            TOTAL IN = 25558395976.7764              TOTAL IN =    31130305.2038

          OUT:                                     OUT:
          ----                                     ----
              STO-SS =           0.0000                STO-SS =           0.0000     STORAGE         
              STO-SY =  4433838745.5805                STO-SY =     2231805.4303     STORAGE         
                 WEL =  3361779460.7535                   WEL =    18178126.3013     WEL_0           
                 DRN = 17762770836.0058                   DRN =    10720319.1243     DRN_0           
                 RCH =           0.0000                   RCH =           0.0000     RCH_0           

           TOTAL OUT = 25558389042.3399             TOTAL OUT =    31130250.8558

            IN - OUT =        6934.4365              IN - OUT =          54.3479

 PERCENT DISCREPANCY =           0.00     PERCENT DISCREPANCY =           0.00




         TIME SUMMARY AT END OF TIME STEP    1 IN STRESS PERIOD  350
                          TIME STEP LENGTH =    1.00000    
                        STRESS PERIOD TIME =    1.00000    
                     TOTAL SIMULATION TIME =    350.000    

end timestep


start timestep kper="351" kstp="1" mode="normal"


 OUTPUT CONTROL FOR STRESS PERIOD 351 IS REPEATED USING SETTINGS FROM A PREVIOUS STRESS PERIOD.


 STRESS PERIOD 351 IS TRANSIENT


 REUSING WELS FROM LAST STRESS PERIOD

 REUSING DRNS FROM LAST STRESS PERIOD

 REUSING RCHS FROM LAST STRESS PERIOD


  VOLUME BUDGET FOR ENTIRE MODEL AT END OF TIME STEP    1, STRESS PERIOD 351
  ---------------------------------------------------------------------------------------------------

     CUMULATIVE VOLUME      L**3       RATES FOR THIS TIME STEP      L**3/T          PACKAGE NAME    
     ------------------                 ------------------------                     ----------------

           IN:                                      IN:
           ---                                      ---
              STO-SS =           0.0000                STO-SS =           0.0000     STORAGE         
              STO-SY =  7571265531.9488                STO-SY =    19918572.8524     STORAGE         
                 WEL =           0.0000                   WEL =           0.0000     WEL_0           
                 DRN =           0.0000                   DRN =           0.0000     DRN_0           
                 RCH = 18017611838.2429                   RCH =    10562820.5630     RCH_0           

            TOTAL IN = 25588877370.1918              TOTAL IN =    30481393.4154

          OUT:                                     OUT:
          ----                                     ----
              STO-SS =           0.0000                STO-SS =           0.0000     STORAGE         
              STO-SY =  4435997896.4061                STO-SY =     2159150.8256     STORAGE         
                 WEL =  3379935806.1317                   WEL =    18156345.3782     WEL_0           
                 DRN = 17772936733.1126                   DRN =    10165897.1068     DRN_0           
                 RCH =           0.0000                   RCH =           0.0000     RCH_0           

           TOTAL OUT = 25588870435.6504             TOTAL OUT =    30481393.3105

            IN - OUT =        6934.5414              IN - OUT =           0.1049

 PERCENT DISCREPANCY =           0.00     PERCENT DISCREPANCY =           0.00




         TIME SUMMARY AT END OF TIME STEP    1 IN STRESS PERIOD  351
                          TIME STEP LENGTH =    1.00000    
                        STRESS PERIOD TIME =    1.00000    
                     TOTAL SIMULATION TIME =    351.000    

end timestep


start timestep kper="352" kstp="1" mode="normal"


 OUTPUT CONTROL FOR STRESS PERIOD 352 IS REPEATED USING SETTINGS FROM A PREVIOUS STRESS PERIOD.


 STRESS PERIOD 352 IS TRANSIENT


 REUSING WELS FROM LAST STRESS PERIOD

 REUSING DRNS FROM LAST STRESS PERIOD

 REUSING RCHS FROM LAST STRESS PERIOD


  VOLUME BUDGET FOR ENTIRE MODEL AT END OF TIME STEP    1, STRESS PERIOD 352
  ---------------------------------------------------------------------------------------------------

     CUMULATIVE VOLUME      L**3       RATES FOR THIS TIME STEP      L**3/T          PACKAGE NAME    
     ------------------                 ------------------------                     ----------------

           IN:                                      IN:
           ---                                      ---
              STO-SS =           0.0000                STO-SS =           0.0000     STORAGE         
              STO-SY =  7591482108.7155                STO-SY =    20216576.7667     STORAGE         
                 WEL =           0.0000                   WEL =           0.0000     WEL_0           
                 DRN =           0.0000                   DRN =           0.0000     DRN_0           
                 RCH = 18029216011.4825                   RCH =    11604173.2395     RCH_0           

            TOTAL IN = 25620698120.1980              TOTAL IN =    31820750.0062

          OUT:                                     OUT:
          ----                                     ----
              STO-SS =           0.0000                STO-SS =           0.0000     STORAGE         
              STO-SY =  4438229744.3088                STO-SY =     2231847.9027     STORAGE         
                 WEL =  3399049546.1577                   WEL =    19113740.0260     WEL_0           
                 DRN = 17783411874.5887                   DRN =    10475141.4761     DRN_0           
                 RCH =           0.0000                   RCH =           0.0000     RCH_0           

           TOTAL OUT = 25620691165.0551             TOTAL OUT =    31820729.4048

            IN - OUT =        6955.1428              IN - OUT =          20.6015

 PERCENT DISCREPANCY =           0.00     PERCENT DISCREPANCY =           0.00




         TIME SUMMARY AT END OF TIME STEP    1 IN STRESS PERIOD  352
                          TIME STEP LENGTH =    1.00000    
                        STRESS PERIOD TIME =    1.00000    
                     TOTAL SIMULATION TIME =    352.000    

end timestep


start timestep kper="353" kstp="1" mode="normal"


 OUTPUT CONTROL FOR STRESS PERIOD 353 IS REPEATED USING SETTINGS FROM A PREVIOUS STRESS PERIOD.


 STRESS PERIOD 353 IS TRANSIENT


 REUSING WELS FROM LAST STRESS PERIOD

 REUSING DRNS FROM LAST STRESS PERIOD

 REUSING RCHS FROM LAST STRESS PERIOD


  VOLUME BUDGET FOR ENTIRE MODEL AT END OF TIME STEP    1, STRESS PERIOD 353
  ---------------------------------------------------------------------------------------------------

     CUMULATIVE VOLUME      L**3       RATES FOR THIS TIME STEP      L**3/T          PACKAGE NAME    
     ------------------                 ------------------------                     ----------------

           IN:                                      IN:
           ---                                      ---
              STO-SS =           0.0000                STO-SS =           0.0000     STORAGE         
              STO-SY =  7614953922.3341                STO-SY =    23471813.6186     STORAGE         
                 WEL =           0.0000                   WEL =           0.0000     WEL_0           
                 DRN =           0.0000                   DRN =           0.0000     DRN_0           
                 RCH = 18041097031.3108                   RCH =    11881019.8283     RCH_0           

            TOTAL IN = 25656050953.6450              TOTAL IN =    35352833.4470

          OUT:                                     OUT:
          ----                                     ----
              STO-SS =           0.0000                STO-SS =           0.0000     STORAGE         
              STO-SY =  4440289865.0878                STO-SY =     2060120.7791     STORAGE         
                 WEL =  3422558218.9069                   WEL =    23508672.7492     WEL_0           
                 DRN = 17793195914.8094                   DRN =     9784040.2208     DRN_0           
                 RCH =           0.0000                   RCH =           0.0000     RCH_0           

           TOTAL OUT = 25656043998.8041             TOTAL OUT =    35352833.7490

            IN - OUT =        6954.8408              IN - OUT =          -0.3020

 PERCENT DISCREPANCY =           0.00     PERCENT DISCREPANCY =          -0.00




         TIME SUMMARY AT END OF TIME STEP    1 IN STRESS PERIOD  353
                          TIME STEP LENGTH =    1.00000    
                        STRESS PERIOD TIME =    1.00000    
                     TOTAL SIMULATION TIME =    353.000    

end timestep


start timestep kper="354" kstp="1" mode="normal"


 OUTPUT CONTROL FOR STRESS PERIOD 354 IS REPEATED USING SETTINGS FROM A PREVIOUS STRESS PERIOD.


 STRESS PERIOD 354 IS TRANSIENT


 REUSING WELS FROM LAST STRESS PERIOD

 REUSING DRNS FROM LAST STRESS PERIOD

 REUSING RCHS FROM LAST STRESS PERIOD


  VOLUME BUDGET FOR ENTIRE MODEL AT END OF TIME STEP    1, STRESS PERIOD 354
  ---------------------------------------------------------------------------------------------------

     CUMULATIVE VOLUME      L**3       RATES FOR THIS TIME STEP      L**3/T          PACKAGE NAME    
     ------------------                 ------------------------                     ----------------

           IN:                                      IN:
           ---                                      ---
              STO-SS =           0.0000                STO-SS =           0.0000     STORAGE         
              STO-SY =  7634805142.4540                STO-SY =    19851220.1199     STORAGE         
                 WEL =           0.0000                   WEL =           0.0000     WEL_0           
                 DRN =           0.0000                   DRN =           0.0000     DRN_0           
                 RCH = 18052030936.2054                   RCH =    10933904.8946     RCH_0           

            TOTAL IN = 25686836078.6594              TOTAL IN =    30785125.0145

          OUT:                                     OUT:
          ----                                     ----
              STO-SS =           0.0000                STO-SS =           0.0000     STORAGE         
              STO-SY =  4442394377.2289                STO-SY =     2104512.1411     STORAGE         
                 WEL =  3441167675.0830                   WEL =    18609456.1761     WEL_0           
                 DRN = 17803267071.7148                   DRN =    10071156.9053     DRN_0           
                 RCH =           0.0000                   RCH =           0.0000     RCH_0           

           TOTAL OUT = 25686829124.0266             TOTAL OUT =    30785125.2225

            IN - OUT =        6954.6328              IN - OUT =          -0.2080

 PERCENT DISCREPANCY =           0.00     PERCENT DISCREPANCY =          -0.00




         TIME SUMMARY AT END OF TIME STEP    1 IN STRESS PERIOD  354
                          TIME STEP LENGTH =    1.00000    
                        STRESS PERIOD TIME =    1.00000    
                     TOTAL SIMULATION TIME =    354.000    

end timestep


start timestep kper="355" kstp="1" mode="normal"


 OUTPUT CONTROL FOR STRESS PERIOD 355 IS REPEATED USING SETTINGS FROM A PREVIOUS STRESS PERIOD.


 STRESS PERIOD 355 IS TRANSIENT


 REUSING WELS FROM LAST STRESS PERIOD

 REUSING DRNS FROM LAST STRESS PERIOD

 REUSING RCHS FROM LAST STRESS PERIOD


  VOLUME BUDGET FOR ENTIRE MODEL AT END OF TIME STEP    1, STRESS PERIOD 355
  ---------------------------------------------------------------------------------------------------

     CUMULATIVE VOLUME      L**3       RATES FOR THIS TIME STEP      L**3/T          PACKAGE NAME    
     ------------------                 ------------------------                     ----------------

           IN:                                      IN:
           ---                                      ---
              STO-SS =           0.0000                STO-SS =           0.0000     STORAGE         
              STO-SY =  7649361867.2727                STO-SY =    14556724.8186     STORAGE         
                 WEL =           0.0000                   WEL =           0.0000     WEL_0           
                 DRN =           0.0000                   DRN =           0.0000     DRN_0           
                 RCH = 18059499165.0375                   RCH =     7468228.8321     RCH_0           

            TOTAL IN = 25708861032.3102              TOTAL IN =    22024953.6507

          OUT:                                     OUT:
          ----                                     ----
              STO-SS =           0.0000                STO-SS =           0.0000     STORAGE         
              STO-SY =  4444626673.9073                STO-SY =     2232296.6784     STORAGE         
                 WEL =  3451149865.4139                   WEL =     9982190.3309     WEL_0           
                 DRN = 17813077538.3108                   DRN =     9810466.5961     DRN_0           
                 RCH =           0.0000                   RCH =           0.0000     RCH_0           

           TOTAL OUT = 25708854077.6320             TOTAL OUT =    22024953.6053

            IN - OUT =        6954.6782              IN - OUT =       4.5390E-02

 PERCENT DISCREPANCY =           0.00     PERCENT DISCREPANCY =           0.00




         TIME SUMMARY AT END OF TIME STEP    1 IN STRESS PERIOD  355
                          TIME STEP LENGTH =    1.00000    
                        STRESS PERIOD TIME =    1.00000    
                     TOTAL SIMULATION TIME =    355.000    

end timestep


start timestep kper="356" kstp="1" mode="normal"


 OUTPUT CONTROL FOR STRESS PERIOD 356 IS REPEATED USING SETTINGS FROM A PREVIOUS STRESS PERIOD.


 STRESS PERIOD 356 IS TRANSIENT


 REUSING WELS FROM LAST STRESS PERIOD

 REUSING DRNS FROM LAST STRESS PERIOD

 REUSING RCHS FROM LAST STRESS PERIOD


  VOLUME BUDGET FOR ENTIRE MODEL AT END OF TIME STEP    1, STRESS PERIOD 356
  ---------------------------------------------------------------------------------------------------

     CUMULATIVE VOLUME      L**3       RATES FOR THIS TIME STEP      L**3/T          PACKAGE NAME    
     ------------------                 ------------------------                     ----------------

           IN:                                      IN:
           ---                                      ---
              STO-SS =           0.0000                STO-SS =           0.0000     STORAGE         
              STO-SY =  7665313236.5557                STO-SY =    15951369.2831     STORAGE         
                 WEL =           0.0000                   WEL =           0.0000     WEL_0           
                 DRN =           0.0000                   DRN =           0.0000     DRN_0           
                 RCH = 18068697490.1878                   RCH =     9198325.1503     RCH_0           

            TOTAL IN = 25734010726.7435              TOTAL IN =    25149694.4334

          OUT:                                     OUT:
          ----                                     ----
              STO-SS =           0.0000                STO-SS =           0.0000     STORAGE         
              STO-SY =  4446854391.6881                STO-SY =     2227717.7808     STORAGE         
                 WEL =  3463924207.1280                   WEL =    12774341.7142     WEL_0           
                 DRN = 17823225167.8509                   DRN =    10147629.5400     DRN_0           
                 RCH =           0.0000                   RCH =           0.0000     RCH_0           

           TOTAL OUT = 25734003766.6670             TOTAL OUT =    25149689.0350

            IN - OUT =        6960.0765              IN - OUT =           5.3984

 PERCENT DISCREPANCY =           0.00     PERCENT DISCREPANCY =           0.00




         TIME SUMMARY AT END OF TIME STEP    1 IN STRESS PERIOD  356
                          TIME STEP LENGTH =    1.00000    
                        STRESS PERIOD TIME =    1.00000    
                     TOTAL SIMULATION TIME =    356.000    

end timestep


start timestep kper="357" kstp="1" mode="normal"


 OUTPUT CONTROL FOR STRESS PERIOD 357 IS REPEATED USING SETTINGS FROM A PREVIOUS STRESS PERIOD.


 STRESS PERIOD 357 IS TRANSIENT


 REUSING WELS FROM LAST STRESS PERIOD

 REUSING DRNS FROM LAST STRESS PERIOD

 REUSING RCHS FROM LAST STRESS PERIOD


  VOLUME BUDGET FOR ENTIRE MODEL AT END OF TIME STEP    1, STRESS PERIOD 357
  ---------------------------------------------------------------------------------------------------

     CUMULATIVE VOLUME      L**3       RATES FOR THIS TIME STEP      L**3/T          PACKAGE NAME    
     ------------------                 ------------------------                     ----------------

           IN:                                      IN:
           ---                                      ---
              STO-SS =           0.0000                STO-SS =           0.0000     STORAGE         
              STO-SY =  7679801727.6086                STO-SY =    14488491.0529     STORAGE         
                 WEL =           0.0000                   WEL =           0.0000     WEL_0           
                 DRN =           0.0000                   DRN =           0.0000     DRN_0           
                 RCH = 18075780421.8708                   RCH =     7082931.6831     RCH_0           

            TOTAL IN = 25755582149.4795              TOTAL IN =    21571422.7360

          OUT:                                     OUT:
          ----                                     ----
              STO-SS =           0.0000                STO-SS =           0.0000     STORAGE         
              STO-SY =  4448957198.3168                STO-SY =     2102806.6288     STORAGE         
                 WEL =  3473758252.2380                   WEL =     9834045.1100     WEL_0           
                 DRN = 17832859690.8213                   DRN =     9634522.9704     DRN_0           
                 RCH =           0.0000                   RCH =           0.0000     RCH_0           

           TOTAL OUT = 25755575141.3761             TOTAL OUT =    21571374.7092

            IN - OUT =        7008.1033              IN - OUT =          48.0268

 PERCENT DISCREPANCY =           0.00     PERCENT DISCREPANCY =           0.00




         TIME SUMMARY AT END OF TIME STEP    1 IN STRESS PERIOD  357
                          TIME STEP LENGTH =    1.00000    
                        STRESS PERIOD TIME =    1.00000    
                     TOTAL SIMULATION TIME =    357.000    

end timestep


start timestep kper="358" kstp="1" mode="normal"


 OUTPUT CONTROL FOR STRESS PERIOD 358 IS REPEATED USING SETTINGS FROM A PREVIOUS STRESS PERIOD.


 STRESS PERIOD 358 IS TRANSIENT


 REUSING WELS FROM LAST STRESS PERIOD

 REUSING DRNS FROM LAST STRESS PERIOD

 REUSING RCHS FROM LAST STRESS PERIOD


  VOLUME BUDGET FOR ENTIRE MODEL AT END OF TIME STEP    1, STRESS PERIOD 358
  ---------------------------------------------------------------------------------------------------

     CUMULATIVE VOLUME      L**3       RATES FOR THIS TIME STEP      L**3/T          PACKAGE NAME    
     ------------------                 ------------------------                     ----------------

           IN:                                      IN:
           ---                                      ---
              STO-SS =           0.0000                STO-SS =           0.0000     STORAGE         
              STO-SY =  7697189437.2840                STO-SY =    17387709.6754     STORAGE         
                 WEL =           0.0000                   WEL =           0.0000     WEL_0           
                 DRN =           0.0000                   DRN =           0.0000     DRN_0           
                 RCH = 18084774486.9407                   RCH =     8994065.0699     RCH_0           

            TOTAL IN = 25781963924.2248              TOTAL IN =    26381774.7453

          OUT:                                     OUT:
          ----                                     ----
              STO-SS =           0.0000                STO-SS =           0.0000     STORAGE         
              STO-SY =  4450854612.5186                STO-SY =     1897414.2017     STORAGE         
                 WEL =  3488332894.8384                   WEL =    14574642.6004     WEL_0           
                 DRN = 17842769400.2956                   DRN =     9909709.4743     DRN_0           
                 RCH =           0.0000                   RCH =           0.0000     RCH_0           

           TOTAL OUT = 25781956907.6526             TOTAL OUT =    26381766.2765

            IN - OUT =        7016.5722              IN - OUT =           8.4688

 PERCENT DISCREPANCY =           0.00     PERCENT DISCREPANCY =           0.00




         TIME SUMMARY AT END OF TIME STEP    1 IN STRESS PERIOD  358
                          TIME STEP LENGTH =    1.00000    
                        STRESS PERIOD TIME =    1.00000    
                     TOTAL SIMULATION TIME =    358.000    

end timestep


start timestep kper="359" kstp="1" mode="normal"


 OUTPUT CONTROL FOR STRESS PERIOD 359 IS REPEATED USING SETTINGS FROM A PREVIOUS STRESS PERIOD.


 STRESS PERIOD 359 IS TRANSIENT


 REUSING WELS FROM LAST STRESS PERIOD

 REUSING DRNS FROM LAST STRESS PERIOD

 REUSING RCHS FROM LAST STRESS PERIOD


  VOLUME BUDGET FOR ENTIRE MODEL AT END OF TIME STEP    1, STRESS PERIOD 359
  ---------------------------------------------------------------------------------------------------

     CUMULATIVE VOLUME      L**3       RATES FOR THIS TIME STEP      L**3/T          PACKAGE NAME    
     ------------------                 ------------------------                     ----------------

           IN:                                      IN:
           ---                                      ---
              STO-SS =           0.0000                STO-SS =           0.0000     STORAGE         
              STO-SY =  7719409868.0501                STO-SY =    22220430.7661     STORAGE         
                 WEL =           0.0000                   WEL =           0.0000     WEL_0           
                 DRN =           0.0000                   DRN =           0.0000     DRN_0           
                 RCH = 18095331489.7060                   RCH =    10557002.7652     RCH_0           

            TOTAL IN = 25814741357.7561              TOTAL IN =    32777433.5313

          OUT:                                     OUT:
          ----                                     ----
              STO-SS =           0.0000                STO-SS =           0.0000     STORAGE         
              STO-SY =  4452611635.1122                STO-SY =     1757022.5936     STORAGE         
                 WEL =  3509998948.1504                   WEL =    21666053.3120     WEL_0           
                 DRN = 17852123754.4154                   DRN =     9354354.1198     DRN_0           
                 RCH =           0.0000                   RCH =           0.0000     RCH_0           

           TOTAL OUT = 25814734337.6780             TOTAL OUT =    32777430.0254

            IN - OUT =        7020.0781              IN - OUT =           3.5059

 PERCENT DISCREPANCY =           0.00     PERCENT DISCREPANCY =           0.00




         TIME SUMMARY AT END OF TIME STEP    1 IN STRESS PERIOD  359
                          TIME STEP LENGTH =    1.00000    
                        STRESS PERIOD TIME =    1.00000    
                     TOTAL SIMULATION TIME =    359.000    

end timestep


start timestep kper="360" kstp="1" mode="normal"


 OUTPUT CONTROL FOR STRESS PERIOD 360 IS REPEATED USING SETTINGS FROM A PREVIOUS STRESS PERIOD.


 STRESS PERIOD 360 IS TRANSIENT


 REUSING WELS FROM LAST STRESS PERIOD

 REUSING DRNS FROM LAST STRESS PERIOD

 REUSING RCHS FROM LAST STRESS PERIOD


  VOLUME BUDGET FOR ENTIRE MODEL AT END OF TIME STEP    1, STRESS PERIOD 360
  ---------------------------------------------------------------------------------------------------

     CUMULATIVE VOLUME      L**3       RATES FOR THIS TIME STEP      L**3/T          PACKAGE NAME    
     ------------------                 ------------------------                     ----------------

           IN:                                      IN:
           ---                                      ---
              STO-SS =           0.0000                STO-SS =           0.0000     STORAGE         
              STO-SY =  7736894362.7971                STO-SY =    17484494.7470     STORAGE         
                 WEL =           0.0000                   WEL =           0.0000     WEL_0           
                 DRN =           0.0000                   DRN =           0.0000     DRN_0           
                 RCH = 18103937170.6856                   RCH =     8605680.9796     RCH_0           

            TOTAL IN = 25840831533.4827              TOTAL IN =    26090175.7266

          OUT:                                     OUT:
          ----                                     ----
              STO-SS =           0.0000                STO-SS =           0.0000     STORAGE         
              STO-SY =  4454611580.6710                STO-SY =     1999945.5589     STORAGE         
                 WEL =  3524458797.7329                   WEL =    14459849.5824     WEL_0           
                 DRN = 17861754121.9116                   DRN =     9630367.4962     DRN_0           
                 RCH =           0.0000                   RCH =           0.0000     RCH_0           

           TOTAL OUT = 25840824500.3154             TOTAL OUT =    26090162.6374

            IN - OUT =        7033.1673              IN - OUT =          13.0892

 PERCENT DISCREPANCY =           0.00     PERCENT DISCREPANCY =           0.00




         TIME SUMMARY AT END OF TIME STEP    1 IN STRESS PERIOD  360
                          TIME STEP LENGTH =    1.00000    
                        STRESS PERIOD TIME =    1.00000    
                     TOTAL SIMULATION TIME =    360.000    

end timestep


start timestep kper="361" kstp="1" mode="normal"


 OUTPUT CONTROL FOR STRESS PERIOD 361 IS REPEATED USING SETTINGS FROM A PREVIOUS STRESS PERIOD.


 STRESS PERIOD 361 IS TRANSIENT


 REUSING WELS FROM LAST STRESS PERIOD

 REUSING DRNS FROM LAST STRESS PERIOD

 REUSING RCHS FROM LAST STRESS PERIOD


  VOLUME BUDGET FOR ENTIRE MODEL AT END OF TIME STEP    1, STRESS PERIOD 361
  ---------------------------------------------------------------------------------------------------

     CUMULATIVE VOLUME      L**3       RATES FOR THIS TIME STEP      L**3/T          PACKAGE NAME    
     ------------------                 ------------------------                     ----------------

           IN:                                      IN:
           ---                                      ---
              STO-SS =           0.0000                STO-SS =           0.0000     STORAGE         
              STO-SY =  7751160696.5142                STO-SY =    14266333.7171     STORAGE         
                 WEL =           0.0000                   WEL =           0.0000     WEL_0           
                 DRN =           0.0000                   DRN =           0.0000     DRN_0           
                 RCH = 18112189093.8950                   RCH =     8251923.2094     RCH_0           

            TOTAL IN = 25863349790.4091              TOTAL IN =    22518256.9264

          OUT:                                     OUT:
          ----                                     ----
              STO-SS =           0.0000                STO-SS =           0.0000     STORAGE         
              STO-SY =  4457294786.2340                STO-SY =     2683205.5630     STORAGE         
                 WEL =  3534995442.5696                   WEL =    10536644.8367     WEL_0           
                 DRN = 17871052514.7320                   DRN =     9298392.8205     DRN_0           
                 RCH =           0.0000                   RCH =           0.0000     RCH_0           

           TOTAL OUT = 25863342743.5356             TOTAL OUT =    22518243.2201

            IN - OUT =        7046.8736              IN - OUT =          13.7063

 PERCENT DISCREPANCY =           0.00     PERCENT DISCREPANCY =           0.00




         TIME SUMMARY AT END OF TIME STEP    1 IN STRESS PERIOD  361
                          TIME STEP LENGTH =    1.00000    
                        STRESS PERIOD TIME =    1.00000    
                     TOTAL SIMULATION TIME =    361.000    

end timestep


start timestep kper="362" kstp="1" mode="normal"


 OUTPUT CONTROL FOR STRESS PERIOD 362 IS REPEATED USING SETTINGS FROM A PREVIOUS STRESS PERIOD.


 STRESS PERIOD 362 IS TRANSIENT


 REUSING WELS FROM LAST STRESS PERIOD

 REUSING DRNS FROM LAST STRESS PERIOD

 REUSING RCHS FROM LAST STRESS PERIOD


  VOLUME BUDGET FOR ENTIRE MODEL AT END OF TIME STEP    1, STRESS PERIOD 362
  ---------------------------------------------------------------------------------------------------

     CUMULATIVE VOLUME      L**3       RATES FOR THIS TIME STEP      L**3/T          PACKAGE NAME    
     ------------------                 ------------------------                     ----------------

           IN:                                      IN:
           ---                                      ---
              STO-SS =           0.0000                STO-SS =           0.0000     STORAGE         
              STO-SY =  7766815964.3888                STO-SY =    15655267.8746     STORAGE         
                 WEL =           0.0000                   WEL =           0.0000     WEL_0           
                 DRN =           0.0000                   DRN =           0.0000     DRN_0           
                 RCH = 18119264251.4413                   RCH =     7075157.5464     RCH_0           

            TOTAL IN = 25886080215.8301              TOTAL IN =    22730425.4210

          OUT:                                     OUT:
          ----                                     ----
              STO-SS =           0.0000                STO-SS =           0.0000     STORAGE         
              STO-SY =  4459309857.0818                STO-SY =     2015070.8478     STORAGE         
                 WEL =  3546286073.9547                   WEL =    11290631.3852     WEL_0           
                 DRN = 17880477239.7733                   DRN =     9424725.0412     DRN_0           
                 RCH =           0.0000                   RCH =           0.0000     RCH_0           

           TOTAL OUT = 25886073170.8098             TOTAL OUT =    22730427.2742

            IN - OUT =        7045.0204              IN - OUT =          -1.8532

 PERCENT DISCREPANCY =           0.00     PERCENT DISCREPANCY =          -0.00




         TIME SUMMARY AT END OF TIME STEP    1 IN STRESS PERIOD  362
                          TIME STEP LENGTH =    1.00000    
                        STRESS PERIOD TIME =    1.00000    
                     TOTAL SIMULATION TIME =    362.000    

end timestep


start timestep kper="363" kstp="1" mode="normal"


 OUTPUT CONTROL FOR STRESS PERIOD 363 IS REPEATED USING SETTINGS FROM A PREVIOUS STRESS PERIOD.


 STRESS PERIOD 363 IS TRANSIENT


 REUSING WELS FROM LAST STRESS PERIOD

 REUSING DRNS FROM LAST STRESS PERIOD

 REUSING RCHS FROM LAST STRESS PERIOD


  VOLUME BUDGET FOR ENTIRE MODEL AT END OF TIME STEP    1, STRESS PERIOD 363
  ---------------------------------------------------------------------------------------------------

     CUMULATIVE VOLUME      L**3       RATES FOR THIS TIME STEP      L**3/T          PACKAGE NAME    
     ------------------                 ------------------------                     ----------------

           IN:                                      IN:
           ---                                      ---
              STO-SS =           0.0000                STO-SS =           0.0000     STORAGE         
              STO-SY =  7781065112.6482                STO-SY =    14249148.2594     STORAGE         
                 WEL =           0.0000                   WEL =           0.0000     WEL_0           
                 DRN =           0.0000                   DRN =           0.0000     DRN_0           
                 RCH = 18124864137.0209                   RCH =     5599885.5796     RCH_0           

            TOTAL IN = 25905929249.6691              TOTAL IN =    19849033.8390

          OUT:                                     OUT:
          ----                                     ----
              STO-SS =           0.0000                STO-SS =           0.0000     STORAGE         
              STO-SY =  4461317276.1161                STO-SY =     2007419.0343     STORAGE         
                 WEL =  3554902603.5961                   WEL =     8616529.6414     WEL_0           
                 DRN = 17889702324.7859                   DRN =     9225085.0127     DRN_0           
                 RCH =           0.0000                   RCH =           0.0000     RCH_0           

           TOTAL OUT = 25905922204.4981             TOTAL OUT =    19849033.6883

            IN - OUT =        7045.1710              IN - OUT =           0.1507

 PERCENT DISCREPANCY =           0.00     PERCENT DISCREPANCY =           0.00




         TIME SUMMARY AT END OF TIME STEP    1 IN STRESS PERIOD  363
                          TIME STEP LENGTH =    1.00000    
                        STRESS PERIOD TIME =    1.00000    
                     TOTAL SIMULATION TIME =    363.000    

end timestep


start timestep kper="364" kstp="1" mode="normal"


 OUTPUT CONTROL FOR STRESS PERIOD 364 IS REPEATED USING SETTINGS FROM A PREVIOUS STRESS PERIOD.


 STRESS PERIOD 364 IS TRANSIENT


 REUSING WELS FROM LAST STRESS PERIOD

 REUSING DRNS FROM LAST STRESS PERIOD

 REUSING RCHS FROM LAST STRESS PERIOD


  VOLUME BUDGET FOR ENTIRE MODEL AT END OF TIME STEP    1, STRESS PERIOD 364
  ---------------------------------------------------------------------------------------------------

     CUMULATIVE VOLUME      L**3       RATES FOR THIS TIME STEP      L**3/T          PACKAGE NAME    
     ------------------                 ------------------------                     ----------------

           IN:                                      IN:
           ---                                      ---
              STO-SS =           0.0000                STO-SS =           0.0000     STORAGE         
              STO-SY =  7797454528.1447                STO-SY =    16389415.4965     STORAGE         
                 WEL =           0.0000                   WEL =           0.0000     WEL_0           
                 DRN =           0.0000                   DRN =           0.0000     DRN_0           
                 RCH = 18132856160.2798                   RCH =     7992023.2589     RCH_0           

            TOTAL IN = 25930310688.4245              TOTAL IN =    24381438.7553

          OUT:                                     OUT:
          ----                                     ----
              STO-SS =           0.0000                STO-SS =           0.0000     STORAGE         
              STO-SY =  4463269438.1624                STO-SY =     1952162.0463     STORAGE         
                 WEL =  3567846911.8443                   WEL =    12944308.2482     WEL_0           
                 DRN = 17899187293.2704                   DRN =     9484968.4845     DRN_0           
                 RCH =           0.0000                   RCH =           0.0000     RCH_0           

           TOTAL OUT = 25930303643.2770             TOTAL OUT =    24381438.7789

            IN - OUT =        7045.1474              IN - OUT =      -2.3589E-02

 PERCENT DISCREPANCY =           0.00     PERCENT DISCREPANCY =          -0.00




         TIME SUMMARY AT END OF TIME STEP    1 IN STRESS PERIOD  364
                          TIME STEP LENGTH =    1.00000    
                        STRESS PERIOD TIME =    1.00000    
                     TOTAL SIMULATION TIME =    364.000    

end timestep


start timestep kper="365" kstp="1" mode="normal"


 OUTPUT CONTROL FOR STRESS PERIOD 365 IS REPEATED USING SETTINGS FROM A PREVIOUS STRESS PERIOD.


 STRESS PERIOD 365 IS TRANSIENT


 REUSING WELS FROM LAST STRESS PERIOD

 REUSING DRNS FROM LAST STRESS PERIOD

 REUSING RCHS FROM LAST STRESS PERIOD


  VOLUME BUDGET FOR ENTIRE MODEL AT END OF TIME STEP    1, STRESS PERIOD 365
  ---------------------------------------------------------------------------------------------------

     CUMULATIVE VOLUME      L**3       RATES FOR THIS TIME STEP      L**3/T          PACKAGE NAME    
     ------------------                 ------------------------                     ----------------

           IN:                                      IN:
           ---                                      ---
              STO-SS =           0.0000                STO-SS =           0.0000     STORAGE         
              STO-SY =  7820945358.7139                STO-SY =    23490830.5692     STORAGE         
                 WEL =           0.0000                   WEL =           0.0000     WEL_0           
                 DRN =           0.0000                   DRN =           0.0000     DRN_0           
                 RCH = 18143023539.7067                   RCH =    10167379.4270     RCH_0           

            TOTAL IN = 25963968898.4206              TOTAL IN =    33658209.9962

          OUT:                                     OUT:
          ----                                     ----
              STO-SS =           0.0000                STO-SS =           0.0000     STORAGE         
              STO-SY =  4464836000.0842                STO-SY =     1566561.9219     STORAGE         
                 WEL =  3590951378.6420                   WEL =    23104466.7977     WEL_0           
                 DRN = 17908174440.7369                   DRN =     8987147.4665     DRN_0           
                 RCH =           0.0000                   RCH =           0.0000     RCH_0           

           TOTAL OUT = 25963961819.4631             TOTAL OUT =    33658176.1860

            IN - OUT =        7078.9576              IN - OUT =          33.8101

 PERCENT DISCREPANCY =           0.00     PERCENT DISCREPANCY =           0.00




         TIME SUMMARY AT END OF TIME STEP    1 IN STRESS PERIOD  365
                          TIME STEP LENGTH =    1.00000    
                        STRESS PERIOD TIME =    1.00000    
                     TOTAL SIMULATION TIME =    365.000    

end timestep


start timestep kper="366" kstp="1" mode="normal"


 OUTPUT CONTROL FOR STRESS PERIOD 366 IS REPEATED USING SETTINGS FROM A PREVIOUS STRESS PERIOD.


 STRESS PERIOD 366 IS TRANSIENT


 REUSING WELS FROM LAST STRESS PERIOD

 REUSING DRNS FROM LAST STRESS PERIOD

 REUSING RCHS FROM LAST STRESS PERIOD


  VOLUME BUDGET FOR ENTIRE MODEL AT END OF TIME STEP    1, STRESS PERIOD 366
  ---------------------------------------------------------------------------------------------------

     CUMULATIVE VOLUME      L**3       RATES FOR THIS TIME STEP      L**3/T          PACKAGE NAME    
     ------------------                 ------------------------                     ----------------

           IN:                                      IN:
           ---                                      ---
              STO-SS =           0.0000                STO-SS =           0.0000     STORAGE         
              STO-SY =  7838241055.2725                STO-SY =    17295696.5586     STORAGE         
                 WEL =           0.0000                   WEL =           0.0000     WEL_0           
                 DRN =           0.0000                   DRN =           0.0000     DRN_0           
                 RCH = 18151719259.3272                   RCH =     8695719.6205     RCH_0           

            TOTAL IN = 25989960314.5998              TOTAL IN =    25991416.1791

          OUT:                                     OUT:
          ----                                     ----
              STO-SS =           0.0000                STO-SS =           0.0000     STORAGE         
              STO-SY =  4466805924.9004                STO-SY =     1969924.8161     STORAGE         
                 WEL =  3605693675.4917                   WEL =    14742296.8497     WEL_0           
                 DRN = 17917453635.2080                   DRN =     9279194.4712     DRN_0           
                 RCH =           0.0000                   RCH =           0.0000     RCH_0           

           TOTAL OUT = 25989953235.6001             TOTAL OUT =    25991416.1370

            IN - OUT =        7078.9996              IN - OUT =       4.2077E-02

 PERCENT DISCREPANCY =           0.00     PERCENT DISCREPANCY =           0.00




         TIME SUMMARY AT END OF TIME STEP    1 IN STRESS PERIOD  366
                          TIME STEP LENGTH =    1.00000    
                        STRESS PERIOD TIME =    1.00000    
                     TOTAL SIMULATION TIME =    366.000    

end timestep


start timestep kper="367" kstp="1" mode="normal"


 OUTPUT CONTROL FOR STRESS PERIOD 367 IS REPEATED USING SETTINGS FROM A PREVIOUS STRESS PERIOD.


 STRESS PERIOD 367 IS TRANSIENT


 REUSING WELS FROM LAST STRESS PERIOD

 REUSING DRNS FROM LAST STRESS PERIOD

 REUSING RCHS FROM LAST STRESS PERIOD


  VOLUME BUDGET FOR ENTIRE MODEL AT END OF TIME STEP    1, STRESS PERIOD 367
  ---------------------------------------------------------------------------------------------------

     CUMULATIVE VOLUME      L**3       RATES FOR THIS TIME STEP      L**3/T          PACKAGE NAME    
     ------------------                 ------------------------                     ----------------

           IN:                                      IN:
           ---                                      ---
              STO-SS =           0.0000                STO-SS =           0.0000     STORAGE         
              STO-SY =  7891894920.2998                STO-SY =    53653865.0273     STORAGE         
                 WEL =           0.0000                   WEL =           0.0000     WEL_0           
                 DRN =           0.0000                   DRN =           0.0000     DRN_0           
                 RCH = 18169986852.0216                   RCH =    18267592.6944     RCH_0           

            TOTAL IN = 26061881772.3214              TOTAL IN =    71921457.7217

          OUT:                                     OUT:
          ----                                     ----
              STO-SS =           0.0000                STO-SS =           0.0000     STORAGE         
              STO-SY =  4469180543.2601                STO-SY =     2374618.3597     STORAGE         
                 WEL =  3667668820.3809                   WEL =    61975144.8891     WEL_0           
                 DRN = 17925025332.1304                   DRN =     7571696.9223     DRN_0           
                 RCH =           0.0000                   RCH =           0.0000     RCH_0           

           TOTAL OUT = 26061874695.7713             TOTAL OUT =    71921460.1712

            IN - OUT =        7076.5501              IN - OUT =          -2.4496

 PERCENT DISCREPANCY =           0.00     PERCENT DISCREPANCY =          -0.00




         TIME SUMMARY AT END OF TIME STEP    1 IN STRESS PERIOD  367
                          TIME STEP LENGTH =    1.00000    
                        STRESS PERIOD TIME =    1.00000    
                     TOTAL SIMULATION TIME =    367.000    

end timestep


start timestep kper="368" kstp="1" mode="normal"


 OUTPUT CONTROL FOR STRESS PERIOD 368 IS REPEATED USING SETTINGS FROM A PREVIOUS STRESS PERIOD.


 STRESS PERIOD 368 IS TRANSIENT


 REUSING WELS FROM LAST STRESS PERIOD

 REUSING DRNS FROM LAST STRESS PERIOD

 REUSING RCHS FROM LAST STRESS PERIOD


  VOLUME BUDGET FOR ENTIRE MODEL AT END OF TIME STEP    1, STRESS PERIOD 368
  ---------------------------------------------------------------------------------------------------

     CUMULATIVE VOLUME      L**3       RATES FOR THIS TIME STEP      L**3/T          PACKAGE NAME    
     ------------------                 ------------------------                     ----------------

           IN:                                      IN:
           ---                                      ---
              STO-SS =           0.0000                STO-SS =           0.0000     STORAGE         
              STO-SY =  7936926610.8358                STO-SY =    45031690.5360     STORAGE         
                 WEL =           0.0000                   WEL =           0.0000     WEL_0           
                 DRN =           0.0000                   DRN =           0.0000     DRN_0           
                 RCH = 18187403150.2027                   RCH =    17416298.1811     RCH_0           

            TOTAL IN = 26124329761.0384              TOTAL IN =    62447988.7170

          OUT:                                     OUT:
          ----                                     ----
              STO-SS =           0.0000                STO-SS =           0.0000     STORAGE         
              STO-SY =  4471016775.3897                STO-SY =     1836232.1296     STORAGE         
                 WEL =  3720182493.6306                   WEL =    52513673.2498     WEL_0           
                 DRN = 17933123407.0156                   DRN =     8098074.8852     DRN_0           
                 RCH =           0.0000                   RCH =           0.0000     RCH_0           

           TOTAL OUT = 26124322676.0359             TOTAL OUT =    62447980.2646

            IN - OUT =        7085.0025              IN - OUT =           8.4524

 PERCENT DISCREPANCY =           0.00     PERCENT DISCREPANCY =           0.00




         TIME SUMMARY AT END OF TIME STEP    1 IN STRESS PERIOD  368
                          TIME STEP LENGTH =    1.00000    
                        STRESS PERIOD TIME =    1.00000    
                     TOTAL SIMULATION TIME =    368.000    

end timestep


start timestep kper="369" kstp="1" mode="normal"


 OUTPUT CONTROL FOR STRESS PERIOD 369 IS REPEATED USING SETTINGS FROM A PREVIOUS STRESS PERIOD.


 STRESS PERIOD 369 IS TRANSIENT


 REUSING WELS FROM LAST STRESS PERIOD

 REUSING DRNS FROM LAST STRESS PERIOD

 REUSING RCHS FROM LAST STRESS PERIOD


  VOLUME BUDGET FOR ENTIRE MODEL AT END OF TIME STEP    1, STRESS PERIOD 369
  ---------------------------------------------------------------------------------------------------

     CUMULATIVE VOLUME      L**3       RATES FOR THIS TIME STEP      L**3/T          PACKAGE NAME    
     ------------------                 ------------------------                     ----------------

           IN:                                      IN:
           ---                                      ---
              STO-SS =           0.0000                STO-SS =           0.0000     STORAGE         
              STO-SY =  7972399462.1280                STO-SY =    35472851.2922     STORAGE         
                 WEL =           0.0000                   WEL =           0.0000     WEL_0           
                 DRN =           0.0000                   DRN =           0.0000     DRN_0           
                 RCH = 18201273921.4812                   RCH =    13870771.2786     RCH_0           

            TOTAL IN = 26173673383.6092              TOTAL IN =    49343622.5708

          OUT:                                     OUT:
          ----                                     ----
              STO-SS =           0.0000                STO-SS =           0.0000     STORAGE         
              STO-SY =  4472913544.9575                STO-SY =     1896769.5678     STORAGE         
                 WEL =  3759931141.8431                   WEL =    39748648.2125     WEL_0           
                 DRN = 17940821603.4153                   DRN =     7698196.3997     DRN_0           
                 RCH =           0.0000                   RCH =           0.0000     RCH_0           

           TOTAL OUT = 26173666290.2159             TOTAL OUT =    49343614.1800

            IN - OUT =        7093.3933              IN - OUT =           8.3908

 PERCENT DISCREPANCY =           0.00     PERCENT DISCREPANCY =           0.00




         TIME SUMMARY AT END OF TIME STEP    1 IN STRESS PERIOD  369
                          TIME STEP LENGTH =    1.00000    
                        STRESS PERIOD TIME =    1.00000    
                     TOTAL SIMULATION TIME =    369.000    

end timestep


start timestep kper="370" kstp="1" mode="normal"


 OUTPUT CONTROL FOR STRESS PERIOD 370 IS REPEATED USING SETTINGS FROM A PREVIOUS STRESS PERIOD.


 STRESS PERIOD 370 IS TRANSIENT


 REUSING WELS FROM LAST STRESS PERIOD

 REUSING DRNS FROM LAST STRESS PERIOD

 REUSING RCHS FROM LAST STRESS PERIOD


  VOLUME BUDGET FOR ENTIRE MODEL AT END OF TIME STEP    1, STRESS PERIOD 370
  ---------------------------------------------------------------------------------------------------

     CUMULATIVE VOLUME      L**3       RATES FOR THIS TIME STEP      L**3/T          PACKAGE NAME    
     ------------------                 ------------------------                     ----------------

           IN:                                      IN:
           ---                                      ---
              STO-SS =           0.0000                STO-SS =           0.0000     STORAGE         
              STO-SY =  8000868411.5889                STO-SY =    28468949.4609     STORAGE         
                 WEL =           0.0000                   WEL =           0.0000     WEL_0           
                 DRN =           0.0000                   DRN =           0.0000     DRN_0           
                 RCH = 18212809950.0849                   RCH =    11536028.6037     RCH_0           

            TOTAL IN = 26213678361.6738              TOTAL IN =    40004978.0646

          OUT:                                     OUT:
          ----                                     ----
              STO-SS =           0.0000                STO-SS =           0.0000     STORAGE         
              STO-SY =  4474986417.0103                STO-SY =     2072872.0529     STORAGE         
                 WEL =  3789812015.4017                   WEL =    29880873.5586     WEL_0           
                 DRN = 17948872836.0239                   DRN =     8051232.6086     DRN_0           
                 RCH =           0.0000                   RCH =           0.0000     RCH_0           

           TOTAL OUT = 26213671268.4360             TOTAL OUT =    40004978.2201

            IN - OUT =        7093.2378              IN - OUT =          -0.1555

 PERCENT DISCREPANCY =           0.00     PERCENT DISCREPANCY =          -0.00




         TIME SUMMARY AT END OF TIME STEP    1 IN STRESS PERIOD  370
                          TIME STEP LENGTH =    1.00000    
                        STRESS PERIOD TIME =    1.00000    
                     TOTAL SIMULATION TIME =    370.000    

end timestep


start timestep kper="371" kstp="1" mode="normal"


 OUTPUT CONTROL FOR STRESS PERIOD 371 IS REPEATED USING SETTINGS FROM A PREVIOUS STRESS PERIOD.


 STRESS PERIOD 371 IS TRANSIENT


 REUSING WELS FROM LAST STRESS PERIOD

 REUSING DRNS FROM LAST STRESS PERIOD

 REUSING RCHS FROM LAST STRESS PERIOD


  VOLUME BUDGET FOR ENTIRE MODEL AT END OF TIME STEP    1, STRESS PERIOD 371
  ---------------------------------------------------------------------------------------------------

     CUMULATIVE VOLUME      L**3       RATES FOR THIS TIME STEP      L**3/T          PACKAGE NAME    
     ------------------                 ------------------------                     ----------------

           IN:                                      IN:
           ---                                      ---
              STO-SS =           0.0000                STO-SS =           0.0000     STORAGE         
              STO-SY =  8012325309.0614                STO-SY =    11456897.4725     STORAGE         
                 WEL =           0.0000                   WEL =           0.0000     WEL_0           
                 DRN =           0.0000                   DRN =           0.0000     DRN_0           
                 RCH = 18227886011.0144                   RCH =    15076060.9296     RCH_0           

            TOTAL IN = 26240211320.0758              TOTAL IN =    26532958.4020

          OUT:                                     OUT:
          ----                                     ----
              STO-SS =           0.0000                STO-SS =           0.0000     STORAGE         
              STO-SY =  4484633159.7622                STO-SY =     9646742.7519     STORAGE         
                 WEL =  3798110371.5138                   WEL =     8298356.1121     WEL_0           
                 DRN = 17957460696.9611                   DRN =     8587860.9372     DRN_0           
                 RCH =           0.0000                   RCH =           0.0000     RCH_0           

           TOTAL OUT = 26240204228.2372             TOTAL OUT =    26532959.8012

            IN - OUT =        7091.8386              IN - OUT =          -1.3992

 PERCENT DISCREPANCY =           0.00     PERCENT DISCREPANCY =          -0.00




         TIME SUMMARY AT END OF TIME STEP    1 IN STRESS PERIOD  371
                          TIME STEP LENGTH =    1.00000    
                        STRESS PERIOD TIME =    1.00000    
                     TOTAL SIMULATION TIME =    371.000    

end timestep


start timestep kper="372" kstp="1" mode="normal"


 OUTPUT CONTROL FOR STRESS PERIOD 372 IS REPEATED USING SETTINGS FROM A PREVIOUS STRESS PERIOD.


 STRESS PERIOD 372 IS TRANSIENT


 REUSING WELS FROM LAST STRESS PERIOD

 REUSING DRNS FROM LAST STRESS PERIOD

 REUSING RCHS FROM LAST STRESS PERIOD


  VOLUME BUDGET FOR ENTIRE MODEL AT END OF TIME STEP    1, STRESS PERIOD 372
  ---------------------------------------------------------------------------------------------------

     CUMULATIVE VOLUME      L**3       RATES FOR THIS TIME STEP      L**3/T          PACKAGE NAME    
     ------------------                 ------------------------                     ----------------

           IN:                                      IN:
           ---                                      ---
              STO-SS =           0.0000                STO-SS =           0.0000     STORAGE         
              STO-SY =  8021094484.2123                STO-SY =     8769175.1510     STORAGE         
                 WEL =           0.0000                   WEL =           0.0000     WEL_0           
                 DRN =           0.0000                   DRN =           0.0000     DRN_0           
                 RCH = 18240588945.8187                   RCH =    12702934.8043     RCH_0           

            TOTAL IN = 26261683430.0311              TOTAL IN =    21472109.9552

          OUT:                                     OUT:
          ----                                     ----
              STO-SS =           0.0000                STO-SS =           0.0000     STORAGE         
              STO-SY =  4491933556.5197                STO-SY =     7300396.7574     STORAGE         
                 WEL =  3802973198.8622                   WEL =     4862827.3483     WEL_0           
                 DRN = 17966769582.8009                   DRN =     9308885.8398     DRN_0           
                 RCH =           0.0000                   RCH =           0.0000     RCH_0           

           TOTAL OUT = 26261676338.1828             TOTAL OUT =    21472109.9456

            IN - OUT =        7091.8483              IN - OUT =       9.6949E-03

 PERCENT DISCREPANCY =           0.00     PERCENT DISCREPANCY =           0.00




         TIME SUMMARY AT END OF TIME STEP    1 IN STRESS PERIOD  372
                          TIME STEP LENGTH =    1.00000    
                        STRESS PERIOD TIME =    1.00000    
                     TOTAL SIMULATION TIME =    372.000    

end timestep


start timestep kper="373" kstp="1" mode="normal"


 OUTPUT CONTROL FOR STRESS PERIOD 373 IS REPEATED USING SETTINGS FROM A PREVIOUS STRESS PERIOD.


 STRESS PERIOD 373 IS TRANSIENT


 REUSING WELS FROM LAST STRESS PERIOD

 REUSING DRNS FROM LAST STRESS PERIOD

 REUSING RCHS FROM LAST STRESS PERIOD


  VOLUME BUDGET FOR ENTIRE MODEL AT END OF TIME STEP    1, STRESS PERIOD 373
  ---------------------------------------------------------------------------------------------------

     CUMULATIVE VOLUME      L**3       RATES FOR THIS TIME STEP      L**3/T          PACKAGE NAME    
     ------------------                 ------------------------                     ----------------

           IN:                                      IN:
           ---                                      ---
              STO-SS =           0.0000                STO-SS =           0.0000     STORAGE         
              STO-SY =  8032989433.5000                STO-SY =    11894949.2877     STORAGE         
                 WEL =           0.0000                   WEL =           0.0000     WEL_0           
                 DRN =           0.0000                   DRN =           0.0000     DRN_0           
                 RCH = 18253575963.6052                   RCH =    12987017.7865     RCH_0           

            TOTAL IN = 26286565397.1053              TOTAL IN =    24881967.0742

          OUT:                                     OUT:
          ----                                     ----
              STO-SS =           0.0000                STO-SS =           0.0000     STORAGE         
              STO-SY =  4498610985.9986                STO-SY =     6677429.4789     STORAGE         
                 WEL =  3812675372.8020                   WEL =     9702173.9399     WEL_0           
                 DRN = 17975271946.4362                   DRN =     8502363.6353     DRN_0           
                 RCH =           0.0000                   RCH =           0.0000     RCH_0           

           TOTAL OUT = 26286558305.2368             TOTAL OUT =    24881967.0540

            IN - OUT =        7091.8685              IN - OUT =       2.0177E-02

 PERCENT DISCREPANCY =           0.00     PERCENT DISCREPANCY =           0.00




         TIME SUMMARY AT END OF TIME STEP    1 IN STRESS PERIOD  373
                          TIME STEP LENGTH =    1.00000    
                        STRESS PERIOD TIME =    1.00000    
                     TOTAL SIMULATION TIME =    373.000    

end timestep


start timestep kper="374" kstp="1" mode="normal"


 OUTPUT CONTROL FOR STRESS PERIOD 374 IS REPEATED USING SETTINGS FROM A PREVIOUS STRESS PERIOD.


 STRESS PERIOD 374 IS TRANSIENT


 REUSING WELS FROM LAST STRESS PERIOD

 REUSING DRNS FROM LAST STRESS PERIOD

 REUSING RCHS FROM LAST STRESS PERIOD


  VOLUME BUDGET FOR ENTIRE MODEL AT END OF TIME STEP    1, STRESS PERIOD 374
  ---------------------------------------------------------------------------------------------------

     CUMULATIVE VOLUME      L**3       RATES FOR THIS TIME STEP      L**3/T          PACKAGE NAME    
     ------------------                 ------------------------                     ----------------

           IN:                                      IN:
           ---                                      ---
              STO-SS =           0.0000                STO-SS =           0.0000     STORAGE         
              STO-SY =  8048571142.8069                STO-SY =    15581709.3069     STORAGE         
                 WEL =           0.0000                   WEL =           0.0000     WEL_0           
                 DRN =           0.0000                   DRN =           0.0000     DRN_0           
                 RCH = 18260070136.6875                   RCH =     6494173.0823     RCH_0           

            TOTAL IN = 26308641279.4944              TOTAL IN =    22075882.3891

          OUT:                                     OUT:
          ----                                     ----
              STO-SS =           0.0000                STO-SS =           0.0000     STORAGE         
              STO-SY =  4501360809.0974                STO-SY =     2749823.0988     STORAGE         
                 WEL =  3823490021.7051                   WEL =    10814648.9031     WEL_0           
                 DRN = 17983783363.0175                   DRN =     8511416.5813     DRN_0           
                 RCH =           0.0000                   RCH =           0.0000     RCH_0           

           TOTAL OUT = 26308634193.8200             TOTAL OUT =    22075888.5833

            IN - OUT =        7085.6744              IN - OUT =          -6.1941

 PERCENT DISCREPANCY =           0.00     PERCENT DISCREPANCY =          -0.00




         TIME SUMMARY AT END OF TIME STEP    1 IN STRESS PERIOD  374
                          TIME STEP LENGTH =    1.00000    
                        STRESS PERIOD TIME =    1.00000    
                     TOTAL SIMULATION TIME =    374.000    

end timestep


start timestep kper="375" kstp="1" mode="normal"


 OUTPUT CONTROL FOR STRESS PERIOD 375 IS REPEATED USING SETTINGS FROM A PREVIOUS STRESS PERIOD.


 STRESS PERIOD 375 IS TRANSIENT


 REUSING WELS FROM LAST STRESS PERIOD

 REUSING DRNS FROM LAST STRESS PERIOD

 REUSING RCHS FROM LAST STRESS PERIOD


  VOLUME BUDGET FOR ENTIRE MODEL AT END OF TIME STEP    1, STRESS PERIOD 375
  ---------------------------------------------------------------------------------------------------

     CUMULATIVE VOLUME      L**3       RATES FOR THIS TIME STEP      L**3/T          PACKAGE NAME    
     ------------------                 ------------------------                     ----------------

           IN:                                      IN:
           ---                                      ---
              STO-SS =           0.0000                STO-SS =           0.0000     STORAGE         
              STO-SY =  8070659587.0077                STO-SY =    22088444.2008     STORAGE         
                 WEL =           0.0000                   WEL =           0.0000     WEL_0           
                 DRN =           0.0000                   DRN =           0.0000     DRN_0           
                 RCH = 18268707815.9595                   RCH =     8637679.2720     RCH_0           

            TOTAL IN = 26339367402.9672              TOTAL IN =    30726123.4728

          OUT:                                     OUT:
          ----                                     ----
              STO-SS =           0.0000                STO-SS =           0.0000     STORAGE         
              STO-SY =  4503443188.0170                STO-SY =     2082378.9196     STORAGE         
                 WEL =  3844082429.3213                   WEL =    20592407.6162     WEL_0           
                 DRN = 17991834700.1579                   DRN =     8051337.1404     DRN_0           
                 RCH =           0.0000                   RCH =           0.0000     RCH_0           

           TOTAL OUT = 26339360317.4962             TOTAL OUT =    30726123.6761

            IN - OUT =        7085.4711              IN - OUT =          -0.2033

 PERCENT DISCREPANCY =           0.00     PERCENT DISCREPANCY =          -0.00




         TIME SUMMARY AT END OF TIME STEP    1 IN STRESS PERIOD  375
                          TIME STEP LENGTH =    1.00000    
                        STRESS PERIOD TIME =    1.00000    
                     TOTAL SIMULATION TIME =    375.000    

end timestep


start timestep kper="376" kstp="1" mode="normal"


 OUTPUT CONTROL FOR STRESS PERIOD 376 IS REPEATED USING SETTINGS FROM A PREVIOUS STRESS PERIOD.


 STRESS PERIOD 376 IS TRANSIENT


 REUSING WELS FROM LAST STRESS PERIOD

 REUSING DRNS FROM LAST STRESS PERIOD

 REUSING RCHS FROM LAST STRESS PERIOD


  VOLUME BUDGET FOR ENTIRE MODEL AT END OF TIME STEP    1, STRESS PERIOD 376
  ---------------------------------------------------------------------------------------------------

     CUMULATIVE VOLUME      L**3       RATES FOR THIS TIME STEP      L**3/T          PACKAGE NAME    
     ------------------                 ------------------------                     ----------------

           IN:                                      IN:
           ---                                      ---
              STO-SS =           0.0000                STO-SS =           0.0000     STORAGE         
              STO-SY =  8086824780.8093                STO-SY =    16165193.8016     STORAGE         
                 WEL =           0.0000                   WEL =           0.0000     WEL_0           
                 DRN =           0.0000                   DRN =           0.0000     DRN_0           
                 RCH = 18275280821.3408                   RCH =     6573005.3813     RCH_0           

            TOTAL IN = 26362105602.1501              TOTAL IN =    22738199.1829

          OUT:                                     OUT:
          ----                                     ----
              STO-SS =           0.0000                STO-SS =           0.0000     STORAGE         
              STO-SY =  4505952833.9479                STO-SY =     2509645.9309     STORAGE         
                 WEL =  3855968891.6163                   WEL =    11886462.2950     WEL_0           
                 DRN = 18000176761.8316                   DRN =     8342061.6737     DRN_0           
                 RCH =           0.0000                   RCH =           0.0000     RCH_0           

           TOTAL OUT = 26362098487.3958             TOTAL OUT =    22738169.8997

            IN - OUT =        7114.7543              IN - OUT =          29.2833

 PERCENT DISCREPANCY =           0.00     PERCENT DISCREPANCY =           0.00




         TIME SUMMARY AT END OF TIME STEP    1 IN STRESS PERIOD  376
                          TIME STEP LENGTH =    1.00000    
                        STRESS PERIOD TIME =    1.00000    
                     TOTAL SIMULATION TIME =    376.000    

end timestep


start timestep kper="377" kstp="1" mode="normal"


 OUTPUT CONTROL FOR STRESS PERIOD 377 IS REPEATED USING SETTINGS FROM A PREVIOUS STRESS PERIOD.


 STRESS PERIOD 377 IS TRANSIENT


 REUSING WELS FROM LAST STRESS PERIOD

 REUSING DRNS FROM LAST STRESS PERIOD

 REUSING RCHS FROM LAST STRESS PERIOD


  VOLUME BUDGET FOR ENTIRE MODEL AT END OF TIME STEP    1, STRESS PERIOD 377
  ---------------------------------------------------------------------------------------------------

     CUMULATIVE VOLUME      L**3       RATES FOR THIS TIME STEP      L**3/T          PACKAGE NAME    
     ------------------                 ------------------------                     ----------------

           IN:                                      IN:
           ---                                      ---
              STO-SS =           0.0000                STO-SS =           0.0000     STORAGE         
              STO-SY =  8104243721.1495                STO-SY =    17418940.3402     STORAGE         
                 WEL =           0.0000                   WEL =           0.0000     WEL_0           
                 DRN =           0.0000                   DRN =           0.0000     DRN_0           
                 RCH = 18280829113.8165                   RCH =     5548292.4756     RCH_0           

            TOTAL IN = 26385072834.9659              TOTAL IN =    22967232.8158

          OUT:                                     OUT:
          ----                                     ----
              STO-SS =           0.0000                STO-SS =           0.0000     STORAGE         
              STO-SY =  4508006642.6786                STO-SY =     2053808.7307     STORAGE         
                 WEL =  3868929231.5162                   WEL =    12960339.8999     WEL_0           
                 DRN = 18008129845.8518                   DRN =     7953084.0202     DRN_0           
                 RCH =           0.0000                   RCH =           0.0000     RCH_0           

           TOTAL OUT = 26385065720.0466             TOTAL OUT =    22967232.6508

            IN - OUT =        7114.9193              IN - OUT =           0.1650

 PERCENT DISCREPANCY =           0.00     PERCENT DISCREPANCY =           0.00




         TIME SUMMARY AT END OF TIME STEP    1 IN STRESS PERIOD  377
                          TIME STEP LENGTH =    1.00000    
                        STRESS PERIOD TIME =    1.00000    
                     TOTAL SIMULATION TIME =    377.000    

end timestep


start timestep kper="378" kstp="1" mode="normal"


 OUTPUT CONTROL FOR STRESS PERIOD 378 IS REPEATED USING SETTINGS FROM A PREVIOUS STRESS PERIOD.


 STRESS PERIOD 378 IS TRANSIENT


 REUSING WELS FROM LAST STRESS PERIOD

 REUSING DRNS FROM LAST STRESS PERIOD

 REUSING RCHS FROM LAST STRESS PERIOD


  VOLUME BUDGET FOR ENTIRE MODEL AT END OF TIME STEP    1, STRESS PERIOD 378
  ---------------------------------------------------------------------------------------------------

     CUMULATIVE VOLUME      L**3       RATES FOR THIS TIME STEP      L**3/T          PACKAGE NAME    
     ------------------                 ------------------------                     ----------------

           IN:                                      IN:
           ---                                      ---
              STO-SS =           0.0000                STO-SS =           0.0000     STORAGE         
              STO-SY =  8121293302.4679                STO-SY =    17049581.3184     STORAGE         
                 WEL =           0.0000                   WEL =           0.0000     WEL_0           
                 DRN =           0.0000                   DRN =           0.0000     DRN_0           
                 RCH = 18286061481.1306                   RCH =     5232367.3142     RCH_0           

            TOTAL IN = 26407354783.5985              TOTAL IN =    22281948.6326

          OUT:                                     OUT:
          ----                                     ----
              STO-SS =           0.0000                STO-SS =           0.0000     STORAGE         
              STO-SY =  4510281865.9656                STO-SY =     2275223.2870     STORAGE         
                 WEL =  3880673600.9297                   WEL =    11744369.4135     WEL_0           
                 DRN = 18016392201.7658                   DRN =     8262355.9140     DRN_0           
                 RCH =           0.0000                   RCH =           0.0000     RCH_0           

           TOTAL OUT = 26407347668.6611             TOTAL OUT =    22281948.6145

            IN - OUT =        7114.9374              IN - OUT =       1.8056E-02

 PERCENT DISCREPANCY =           0.00     PERCENT DISCREPANCY =           0.00




         TIME SUMMARY AT END OF TIME STEP    1 IN STRESS PERIOD  378
                          TIME STEP LENGTH =    1.00000    
                        STRESS PERIOD TIME =    1.00000    
                     TOTAL SIMULATION TIME =    378.000    

end timestep


start timestep kper="379" kstp="1" mode="normal"


 OUTPUT CONTROL FOR STRESS PERIOD 379 IS REPEATED USING SETTINGS FROM A PREVIOUS STRESS PERIOD.


 STRESS PERIOD 379 IS TRANSIENT


 REUSING WELS FROM LAST STRESS PERIOD

 REUSING DRNS FROM LAST STRESS PERIOD

 REUSING RCHS FROM LAST STRESS PERIOD


  VOLUME BUDGET FOR ENTIRE MODEL AT END OF TIME STEP    1, STRESS PERIOD 379
  ---------------------------------------------------------------------------------------------------

     CUMULATIVE VOLUME      L**3       RATES FOR THIS TIME STEP      L**3/T          PACKAGE NAME    
     ------------------                 ------------------------                     ----------------

           IN:                                      IN:
           ---                                      ---
              STO-SS =           0.0000                STO-SS =           0.0000     STORAGE         
              STO-SY =  8136734084.2811                STO-SY =    15440781.8132     STORAGE         
                 WEL =           0.0000                   WEL =           0.0000     WEL_0           
                 DRN =           0.0000                   DRN =           0.0000     DRN_0           
                 RCH = 18289499634.3710                   RCH =     3438153.2404     RCH_0           

            TOTAL IN = 26426233718.6521              TOTAL IN =    18878935.0535

          OUT:                                     OUT:
          ----                                     ----
              STO-SS =           0.0000                STO-SS =           0.0000     STORAGE         
              STO-SY =  4512501786.7379                STO-SY =     2219920.7723     STORAGE         
                 WEL =  3889383742.5808                   WEL =     8710141.6511     WEL_0           
                 DRN = 18024341074.3506                   DRN =     7948872.5847     DRN_0           
                 RCH =           0.0000                   RCH =           0.0000     RCH_0           

           TOTAL OUT = 26426226603.6693             TOTAL OUT =    18878935.0081

            IN - OUT =        7114.9828              IN - OUT =       4.5448E-02

 PERCENT DISCREPANCY =           0.00     PERCENT DISCREPANCY =           0.00




         TIME SUMMARY AT END OF TIME STEP    1 IN STRESS PERIOD  379
                          TIME STEP LENGTH =    1.00000    
                        STRESS PERIOD TIME =    1.00000    
                     TOTAL SIMULATION TIME =    379.000    

end timestep


start timestep kper="380" kstp="1" mode="normal"


 OUTPUT CONTROL FOR STRESS PERIOD 380 IS REPEATED USING SETTINGS FROM A PREVIOUS STRESS PERIOD.


 STRESS PERIOD 380 IS TRANSIENT


 REUSING WELS FROM LAST STRESS PERIOD

 REUSING DRNS FROM LAST STRESS PERIOD

 REUSING RCHS FROM LAST STRESS PERIOD


  VOLUME BUDGET FOR ENTIRE MODEL AT END OF TIME STEP    1, STRESS PERIOD 380
  ---------------------------------------------------------------------------------------------------

     CUMULATIVE VOLUME      L**3       RATES FOR THIS TIME STEP      L**3/T          PACKAGE NAME    
     ------------------                 ------------------------                     ----------------

           IN:                                      IN:
           ---                                      ---
              STO-SS =           0.0000                STO-SS =           0.0000     STORAGE         
              STO-SY =  8156797258.4681                STO-SY =    20063174.1870     STORAGE         
                 WEL =           0.0000                   WEL =           0.0000     WEL_0           
                 DRN =           0.0000                   DRN =           0.0000     DRN_0           
                 RCH = 18307630365.5618                   RCH =    18130731.1908     RCH_0           

            TOTAL IN = 26464427624.0299              TOTAL IN =    38193905.3778

          OUT:                                     OUT:
          ----                                     ----
              STO-SS =           0.0000                STO-SS =           0.0000     STORAGE         
              STO-SY =  4518063607.7854                STO-SY =     5561821.0475     STORAGE         
                 WEL =  3913877278.4283                   WEL =    24493535.8475     WEL_0           
                 DRN = 18032479610.3909                   DRN =     8138536.0404     DRN_0           
                 RCH =           0.0000                   RCH =           0.0000     RCH_0           

           TOTAL OUT = 26464420496.6046             TOTAL OUT =    38193892.9354

            IN - OUT =        7127.4252              IN - OUT =          12.4424

 PERCENT DISCREPANCY =           0.00     PERCENT DISCREPANCY =           0.00




         TIME SUMMARY AT END OF TIME STEP    1 IN STRESS PERIOD  380
                          TIME STEP LENGTH =    1.00000    
                        STRESS PERIOD TIME =    1.00000    
                     TOTAL SIMULATION TIME =    380.000    

end timestep


start timestep kper="381" kstp="1" mode="normal"


 OUTPUT CONTROL FOR STRESS PERIOD 381 IS REPEATED USING SETTINGS FROM A PREVIOUS STRESS PERIOD.


 STRESS PERIOD 381 IS TRANSIENT


 REUSING WELS FROM LAST STRESS PERIOD

 REUSING DRNS FROM LAST STRESS PERIOD

 REUSING RCHS FROM LAST STRESS PERIOD


  VOLUME BUDGET FOR ENTIRE MODEL AT END OF TIME STEP    1, STRESS PERIOD 381
  ---------------------------------------------------------------------------------------------------

     CUMULATIVE VOLUME      L**3       RATES FOR THIS TIME STEP      L**3/T          PACKAGE NAME    
     ------------------                 ------------------------                     ----------------

           IN:                                      IN:
           ---                                      ---
              STO-SS =           0.0000                STO-SS =           0.0000     STORAGE         
              STO-SY =  8172289887.7319                STO-SY =    15492629.2639     STORAGE         
                 WEL =           0.0000                   WEL =           0.0000     WEL_0           
                 DRN =           0.0000                   DRN =           0.0000     DRN_0           
                 RCH = 18315093832.3379                   RCH =     7463466.7761     RCH_0           

            TOTAL IN = 26487383720.0699              TOTAL IN =    22956096.0400

          OUT:                                     OUT:
          ----                                     ----
              STO-SS =           0.0000                STO-SS =           0.0000     STORAGE         
              STO-SY =  4521227305.2420                STO-SY =     3163697.4567     STORAGE         
                 WEL =  3925538644.5254                   WEL =    11661366.0971     WEL_0           
                 DRN = 18040610634.0610                   DRN =     8131023.6700     DRN_0           
                 RCH =           0.0000                   RCH =           0.0000     RCH_0           

           TOTAL OUT = 26487376583.8284             TOTAL OUT =    22956087.2238

            IN - OUT =        7136.2415              IN - OUT =           8.8162

 PERCENT DISCREPANCY =           0.00     PERCENT DISCREPANCY =           0.00




         TIME SUMMARY AT END OF TIME STEP    1 IN STRESS PERIOD  381
                          TIME STEP LENGTH =    1.00000    
                        STRESS PERIOD TIME =    1.00000    
                     TOTAL SIMULATION TIME =    381.000    

end timestep


start timestep kper="382" kstp="1" mode="normal"


 OUTPUT CONTROL FOR STRESS PERIOD 382 IS REPEATED USING SETTINGS FROM A PREVIOUS STRESS PERIOD.


 STRESS PERIOD 382 IS TRANSIENT


 REUSING WELS FROM LAST STRESS PERIOD

 REUSING DRNS FROM LAST STRESS PERIOD

 REUSING RCHS FROM LAST STRESS PERIOD


  VOLUME BUDGET FOR ENTIRE MODEL AT END OF TIME STEP    1, STRESS PERIOD 382
  ---------------------------------------------------------------------------------------------------

     CUMULATIVE VOLUME      L**3       RATES FOR THIS TIME STEP      L**3/T          PACKAGE NAME    
     ------------------                 ------------------------                     ----------------

           IN:                                      IN:
           ---                                      ---
              STO-SS =           0.0000                STO-SS =           0.0000     STORAGE         
              STO-SY =  8185907139.1613                STO-SY =    13617251.4294     STORAGE         
                 WEL =           0.0000                   WEL =           0.0000     WEL_0           
                 DRN =           0.0000                   DRN =           0.0000     DRN_0           
                 RCH = 18323542023.1929                   RCH =     8448190.8550     RCH_0           

            TOTAL IN = 26509449162.3543              TOTAL IN =    22065442.2844

          OUT:                                     OUT:
          ----                                     ----
              STO-SS =           0.0000                STO-SS =           0.0000     STORAGE         
              STO-SY =  4525975314.9893                STO-SY =     4748009.7472     STORAGE         
                 WEL =  3934662908.1229                   WEL =     9124263.5975     WEL_0           
                 DRN = 18048803822.2197                   DRN =     8193188.1587     DRN_0           
                 RCH =           0.0000                   RCH =           0.0000     RCH_0           

           TOTAL OUT = 26509442045.3318             TOTAL OUT =    22065461.5034

            IN - OUT =        7117.0225              IN - OUT =         -19.2190

 PERCENT DISCREPANCY =           0.00     PERCENT DISCREPANCY =          -0.00




         TIME SUMMARY AT END OF TIME STEP    1 IN STRESS PERIOD  382
                          TIME STEP LENGTH =    1.00000    
                        STRESS PERIOD TIME =    1.00000    
                     TOTAL SIMULATION TIME =    382.000    

end timestep


start timestep kper="383" kstp="1" mode="normal"


 OUTPUT CONTROL FOR STRESS PERIOD 383 IS REPEATED USING SETTINGS FROM A PREVIOUS STRESS PERIOD.


 STRESS PERIOD 383 IS TRANSIENT


 REUSING WELS FROM LAST STRESS PERIOD

 REUSING DRNS FROM LAST STRESS PERIOD

 REUSING RCHS FROM LAST STRESS PERIOD


  VOLUME BUDGET FOR ENTIRE MODEL AT END OF TIME STEP    1, STRESS PERIOD 383
  ---------------------------------------------------------------------------------------------------

     CUMULATIVE VOLUME      L**3       RATES FOR THIS TIME STEP      L**3/T          PACKAGE NAME    
     ------------------                 ------------------------                     ----------------

           IN:                                      IN:
           ---                                      ---
              STO-SS =           0.0000                STO-SS =           0.0000     STORAGE         
              STO-SY =  8191688628.6273                STO-SY =     5781489.4659     STORAGE         
                 WEL =           0.0000                   WEL =           0.0000     WEL_0           
                 DRN =           0.0000                   DRN =           0.0000     DRN_0           
                 RCH = 18384771120.0647                   RCH =    61229096.8718     RCH_0           

            TOTAL IN = 26576459748.6919              TOTAL IN =    67010586.3377

          OUT:                                     OUT:
          ----                                     ----
              STO-SS =           0.0000                STO-SS =           0.0000     STORAGE         
              STO-SY =  4574254291.6032                STO-SY =    48278976.6140     STORAGE         
                 WEL =  3941946645.4921                   WEL =     7283737.3693     WEL_0           
                 DRN = 18060251691.5235                   DRN =    11447869.3038     DRN_0           
                 RCH =           0.0000                   RCH =           0.0000     RCH_0           

           TOTAL OUT = 26576452628.6188             TOTAL OUT =    67010583.2870

            IN - OUT =        7120.0731              IN - OUT =           3.0507

 PERCENT DISCREPANCY =           0.00     PERCENT DISCREPANCY =           0.00




         TIME SUMMARY AT END OF TIME STEP    1 IN STRESS PERIOD  383
                          TIME STEP LENGTH =    1.00000    
                        STRESS PERIOD TIME =    1.00000    
                     TOTAL SIMULATION TIME =    383.000    

end timestep


start timestep kper="384" kstp="1" mode="normal"


 OUTPUT CONTROL FOR STRESS PERIOD 384 IS REPEATED USING SETTINGS FROM A PREVIOUS STRESS PERIOD.


 STRESS PERIOD 384 IS TRANSIENT


 REUSING WELS FROM LAST STRESS PERIOD

 REUSING DRNS FROM LAST STRESS PERIOD

 REUSING RCHS FROM LAST STRESS PERIOD


  VOLUME BUDGET FOR ENTIRE MODEL AT END OF TIME STEP    1, STRESS PERIOD 384
  ---------------------------------------------------------------------------------------------------

     CUMULATIVE VOLUME      L**3       RATES FOR THIS TIME STEP      L**3/T          PACKAGE NAME    
     ------------------                 ------------------------                     ----------------

           IN:                                      IN:
           ---                                      ---
              STO-SS =           0.0000                STO-SS =           0.0000     STORAGE         
              STO-SY =  8197997188.4187                STO-SY =     6308559.7915     STORAGE         
                 WEL =           0.0000                   WEL =           0.0000     WEL_0           
                 DRN =           0.0000                   DRN =           0.0000     DRN_0           
                 RCH = 18409494225.9479                   RCH =    24723105.8832     RCH_0           

            TOTAL IN = 26607491414.3666              TOTAL IN =    31031665.6746

          OUT:                                     OUT:
          ----                                     ----
              STO-SS =           0.0000                STO-SS =           0.0000     STORAGE         
              STO-SY =  4590006632.7232                STO-SY =    15752341.1200     STORAGE         
                 WEL =  3947805903.2308                   WEL =     5859257.7387     WEL_0           
                 DRN = 18069671729.5799                   DRN =     9420038.0565     DRN_0           
                 RCH =           0.0000                   RCH =           0.0000     RCH_0           

           TOTAL OUT = 26607484265.5339             TOTAL OUT =    31031636.9151

            IN - OUT =        7148.8327              IN - OUT =          28.7596

 PERCENT DISCREPANCY =           0.00     PERCENT DISCREPANCY =           0.00




         TIME SUMMARY AT END OF TIME STEP    1 IN STRESS PERIOD  384
                          TIME STEP LENGTH =    1.00000    
                        STRESS PERIOD TIME =    1.00000    
                     TOTAL SIMULATION TIME =    384.000    

end timestep


start timestep kper="385" kstp="1" mode="normal"


 OUTPUT CONTROL FOR STRESS PERIOD 385 IS REPEATED USING SETTINGS FROM A PREVIOUS STRESS PERIOD.


 STRESS PERIOD 385 IS TRANSIENT


 REUSING WELS FROM LAST STRESS PERIOD

 REUSING DRNS FROM LAST STRESS PERIOD

 REUSING RCHS FROM LAST STRESS PERIOD


  VOLUME BUDGET FOR ENTIRE MODEL AT END OF TIME STEP    1, STRESS PERIOD 385
  ---------------------------------------------------------------------------------------------------

     CUMULATIVE VOLUME      L**3       RATES FOR THIS TIME STEP      L**3/T          PACKAGE NAME    
     ------------------                 ------------------------                     ----------------

           IN:                                      IN:
           ---                                      ---
              STO-SS =           0.0000                STO-SS =           0.0000     STORAGE         
              STO-SY =  8210455586.7628                STO-SY =    12458398.3441     STORAGE         
                 WEL =           0.0000                   WEL =           0.0000     WEL_0           
                 DRN =           0.0000                   DRN =           0.0000     DRN_0           
                 RCH = 18453113555.1131                   RCH =    43619329.1652     RCH_0           

            TOTAL IN = 26663569141.8759              TOTAL IN =    56077727.5093

          OUT:                                     OUT:
          ----                                     ----
              STO-SS =           0.0000                STO-SS =           0.0000     STORAGE         
              STO-SY =  4623042410.0841                STO-SY =    33035777.3610     STORAGE         
                 WEL =  3961381902.9244                   WEL =    13575999.6936     WEL_0           
                 DRN = 18079137673.6382                   DRN =     9465944.0582     DRN_0           
                 RCH =           0.0000                   RCH =           0.0000     RCH_0           

           TOTAL OUT = 26663561986.6468             TOTAL OUT =    56077721.1129

            IN - OUT =        7155.2292              IN - OUT =           6.3965

 PERCENT DISCREPANCY =           0.00     PERCENT DISCREPANCY =           0.00




         TIME SUMMARY AT END OF TIME STEP    1 IN STRESS PERIOD  385
                          TIME STEP LENGTH =    1.00000    
                        STRESS PERIOD TIME =    1.00000    
                     TOTAL SIMULATION TIME =    385.000    

end timestep


start timestep kper="386" kstp="1" mode="normal"


 OUTPUT CONTROL FOR STRESS PERIOD 386 IS REPEATED USING SETTINGS FROM A PREVIOUS STRESS PERIOD.


 STRESS PERIOD 386 IS TRANSIENT


 REUSING WELS FROM LAST STRESS PERIOD

 REUSING DRNS FROM LAST STRESS PERIOD

 REUSING RCHS FROM LAST STRESS PERIOD


  VOLUME BUDGET FOR ENTIRE MODEL AT END OF TIME STEP    1, STRESS PERIOD 386
  ---------------------------------------------------------------------------------------------------

     CUMULATIVE VOLUME      L**3       RATES FOR THIS TIME STEP      L**3/T          PACKAGE NAME    
     ------------------                 ------------------------                     ----------------

           IN:                                      IN:
           ---                                      ---
              STO-SS =           0.0000                STO-SS =           0.0000     STORAGE         
              STO-SY =  8228172670.4895                STO-SY =    17717083.7267     STORAGE         
                 WEL =           0.0000                   WEL =           0.0000     WEL_0           
                 DRN =           0.0000                   DRN =           0.0000     DRN_0           
                 RCH = 18461564236.6417                   RCH =     8450681.5286     RCH_0           

            TOTAL IN = 26689736907.1313              TOTAL IN =    26167765.2553

          OUT:                                     OUT:
          ----                                     ----
              STO-SS =           0.0000                STO-SS =           0.0000     STORAGE         
              STO-SY =  4626313532.1789                STO-SY =     3271122.0948     STORAGE         
                 WEL =  3975408698.6034                   WEL =    14026795.6790     WEL_0           
                 DRN = 18088007556.7618                   DRN =     8869883.1237     DRN_0           
                 RCH =           0.0000                   RCH =           0.0000     RCH_0           

           TOTAL OUT = 26689729787.5441             TOTAL OUT =    26167800.8974

            IN - OUT =        7119.5871              IN - OUT =         -35.6421

 PERCENT DISCREPANCY =           0.00     PERCENT DISCREPANCY =          -0.00




         TIME SUMMARY AT END OF TIME STEP    1 IN STRESS PERIOD  386
                          TIME STEP LENGTH =    1.00000    
                        STRESS PERIOD TIME =    1.00000    
                     TOTAL SIMULATION TIME =    386.000    

end timestep


start timestep kper="387" kstp="1" mode="normal"


 OUTPUT CONTROL FOR STRESS PERIOD 387 IS REPEATED USING SETTINGS FROM A PREVIOUS STRESS PERIOD.


 STRESS PERIOD 387 IS TRANSIENT


 REUSING WELS FROM LAST STRESS PERIOD

 REUSING DRNS FROM LAST STRESS PERIOD

 REUSING RCHS FROM LAST STRESS PERIOD


  VOLUME BUDGET FOR ENTIRE MODEL AT END OF TIME STEP    1, STRESS PERIOD 387
  ---------------------------------------------------------------------------------------------------

     CUMULATIVE VOLUME      L**3       RATES FOR THIS TIME STEP      L**3/T          PACKAGE NAME    
     ------------------                 ------------------------                     ----------------

           IN:                                      IN:
           ---                                      ---
              STO-SS =           0.0000                STO-SS =           0.0000     STORAGE         
              STO-SY =  8245652176.3083                STO-SY =    17479505.8188     STORAGE         
                 WEL =           0.0000                   WEL =           0.0000     WEL_0           
                 DRN =           0.0000                   DRN =           0.0000     DRN_0           
                 RCH = 18469030191.6330                   RCH =     7465954.9913     RCH_0           

            TOTAL IN = 26714682367.9413              TOTAL IN =    24945460.8100

          OUT:                                     OUT:
          ----                                     ----
              STO-SS =           0.0000                STO-SS =           0.0000     STORAGE         
              STO-SY =  4629251799.3075                STO-SY =     2938267.1286     STORAGE         
                 WEL =  3988975984.0400                   WEL =    13567285.4366     WEL_0           
                 DRN = 18096447464.9521                   DRN =     8439908.1903     DRN_0           
                 RCH =           0.0000                   RCH =           0.0000     RCH_0           

           TOTAL OUT = 26714675248.2995             TOTAL OUT =    24945460.7554

            IN - OUT =        7119.6418              IN - OUT =       5.4634E-02

 PERCENT DISCREPANCY =           0.00     PERCENT DISCREPANCY =           0.00




         TIME SUMMARY AT END OF TIME STEP    1 IN STRESS PERIOD  387
                          TIME STEP LENGTH =    1.00000    
                        STRESS PERIOD TIME =    1.00000    
                     TOTAL SIMULATION TIME =    387.000    

end timestep


start timestep kper="388" kstp="1" mode="normal"


 OUTPUT CONTROL FOR STRESS PERIOD 388 IS REPEATED USING SETTINGS FROM A PREVIOUS STRESS PERIOD.


 STRESS PERIOD 388 IS TRANSIENT


 REUSING WELS FROM LAST STRESS PERIOD

 REUSING DRNS FROM LAST STRESS PERIOD

 REUSING RCHS FROM LAST STRESS PERIOD


  VOLUME BUDGET FOR ENTIRE MODEL AT END OF TIME STEP    1, STRESS PERIOD 388
  ---------------------------------------------------------------------------------------------------

     CUMULATIVE VOLUME      L**3       RATES FOR THIS TIME STEP      L**3/T          PACKAGE NAME    
     ------------------                 ------------------------                     ----------------

           IN:                                      IN:
           ---                                      ---
              STO-SS =           0.0000                STO-SS =           0.0000     STORAGE         
              STO-SY =  8260860460.0018                STO-SY =    15208283.6935     STORAGE         
                 WEL =           0.0000                   WEL =           0.0000     WEL_0           
                 DRN =           0.0000                   DRN =           0.0000     DRN_0           
                 RCH = 18475083130.5098                   RCH =     6052938.8768     RCH_0           

            TOTAL IN = 26735943590.5116              TOTAL IN =    21261222.5703

          OUT:                                     OUT:
          ----                                     ----
              STO-SS =           0.0000                STO-SS =           0.0000     STORAGE         
              STO-SY =  4632063781.1074                STO-SY =     2811981.7999     STORAGE         
                 WEL =  3998637491.4375                   WEL =     9661507.3975     WEL_0           
                 DRN = 18105235227.4442                   DRN =     8787762.4921     DRN_0           
                 RCH =           0.0000                   RCH =           0.0000     RCH_0           

           TOTAL OUT = 26735936499.9891             TOTAL OUT =    21261251.6896

            IN - OUT =        7090.5225              IN - OUT =         -29.1193

 PERCENT DISCREPANCY =           0.00     PERCENT DISCREPANCY =          -0.00




         TIME SUMMARY AT END OF TIME STEP    1 IN STRESS PERIOD  388
                          TIME STEP LENGTH =    1.00000    
                        STRESS PERIOD TIME =    1.00000    
                     TOTAL SIMULATION TIME =    388.000    

end timestep


start timestep kper="389" kstp="1" mode="normal"


 OUTPUT CONTROL FOR STRESS PERIOD 389 IS REPEATED USING SETTINGS FROM A PREVIOUS STRESS PERIOD.


 STRESS PERIOD 389 IS TRANSIENT


 REUSING WELS FROM LAST STRESS PERIOD

 REUSING DRNS FROM LAST STRESS PERIOD

 REUSING RCHS FROM LAST STRESS PERIOD


  VOLUME BUDGET FOR ENTIRE MODEL AT END OF TIME STEP    1, STRESS PERIOD 389
  ---------------------------------------------------------------------------------------------------

     CUMULATIVE VOLUME      L**3       RATES FOR THIS TIME STEP      L**3/T          PACKAGE NAME    
     ------------------                 ------------------------                     ----------------

           IN:                                      IN:
           ---                                      ---
              STO-SS =           0.0000                STO-SS =           0.0000     STORAGE         
              STO-SY =  8276421612.1198                STO-SY =    15561152.1181     STORAGE         
                 WEL =           0.0000                   WEL =           0.0000     WEL_0           
                 DRN =           0.0000                   DRN =           0.0000     DRN_0           
                 RCH = 18481174160.5356                   RCH =     6091030.0258     RCH_0           

            TOTAL IN = 26757595772.6555              TOTAL IN =    21652182.1439

          OUT:                                     OUT:
          ----                                     ----
              STO-SS =           0.0000                STO-SS =           0.0000     STORAGE         
              STO-SY =  4634709918.3946                STO-SY =     2646137.2871     STORAGE         
                 WEL =  4009408743.7516                   WEL =    10771252.3142     WEL_0           
                 DRN = 18113470020.2249                   DRN =     8234792.7807     DRN_0           
                 RCH =           0.0000                   RCH =           0.0000     RCH_0           

           TOTAL OUT = 26757588682.3711             TOTAL OUT =    21652182.3820

            IN - OUT =        7090.2844              IN - OUT =          -0.2381

 PERCENT DISCREPANCY =           0.00     PERCENT DISCREPANCY =          -0.00




         TIME SUMMARY AT END OF TIME STEP    1 IN STRESS PERIOD  389
                          TIME STEP LENGTH =    1.00000    
                        STRESS PERIOD TIME =    1.00000    
                     TOTAL SIMULATION TIME =    389.000    

end timestep


start timestep kper="390" kstp="1" mode="normal"


 OUTPUT CONTROL FOR STRESS PERIOD 390 IS REPEATED USING SETTINGS FROM A PREVIOUS STRESS PERIOD.


 STRESS PERIOD 390 IS TRANSIENT


 REUSING WELS FROM LAST STRESS PERIOD

 REUSING DRNS FROM LAST STRESS PERIOD

 REUSING RCHS FROM LAST STRESS PERIOD


  VOLUME BUDGET FOR ENTIRE MODEL AT END OF TIME STEP    1, STRESS PERIOD 390
  ---------------------------------------------------------------------------------------------------

     CUMULATIVE VOLUME      L**3       RATES FOR THIS TIME STEP      L**3/T          PACKAGE NAME    
     ------------------                 ------------------------                     ----------------

           IN:                                      IN:
           ---                                      ---
              STO-SS =           0.0000                STO-SS =           0.0000     STORAGE         
              STO-SY =  8290539898.3804                STO-SY =    14118286.2606     STORAGE         
                 WEL =           0.0000                   WEL =           0.0000     WEL_0           
                 DRN =           0.0000                   DRN =           0.0000     DRN_0           
                 RCH = 18506240777.8327                   RCH =    25066617.2970     RCH_0           

            TOTAL IN = 26796780676.2131              TOTAL IN =    39184903.5576

          OUT:                                     OUT:
          ----                                     ----
              STO-SS =           0.0000                STO-SS =           0.0000     STORAGE         
              STO-SY =  4650590175.3592                STO-SY =    15880256.9646     STORAGE         
                 WEL =  4023152116.5411                   WEL =    13743372.7895     WEL_0           
                 DRN = 18123031295.3507                   DRN =     9561275.1258     DRN_0           
                 RCH =           0.0000                   RCH =           0.0000     RCH_0           

           TOTAL OUT = 26796773587.2509             TOTAL OUT =    39184904.8798

            IN - OUT =        7088.9621              IN - OUT =          -1.3222

 PERCENT DISCREPANCY =           0.00     PERCENT DISCREPANCY =          -0.00




         TIME SUMMARY AT END OF TIME STEP    1 IN STRESS PERIOD  390
                          TIME STEP LENGTH =    1.00000    
                        STRESS PERIOD TIME =    1.00000    
                     TOTAL SIMULATION TIME =    390.000    

end timestep


start timestep kper="391" kstp="1" mode="normal"


 OUTPUT CONTROL FOR STRESS PERIOD 391 IS REPEATED USING SETTINGS FROM A PREVIOUS STRESS PERIOD.


 STRESS PERIOD 391 IS TRANSIENT


 REUSING WELS FROM LAST STRESS PERIOD

 REUSING DRNS FROM LAST STRESS PERIOD

 REUSING RCHS FROM LAST STRESS PERIOD


  VOLUME BUDGET FOR ENTIRE MODEL AT END OF TIME STEP    1, STRESS PERIOD 391
  ---------------------------------------------------------------------------------------------------

     CUMULATIVE VOLUME      L**3       RATES FOR THIS TIME STEP      L**3/T          PACKAGE NAME    
     ------------------                 ------------------------                     ----------------

           IN:                                      IN:
           ---                                      ---
              STO-SS =           0.0000                STO-SS =           0.0000     STORAGE         
              STO-SY =  8305305371.4384                STO-SY =    14765473.0580     STORAGE         
                 WEL =           0.0000                   WEL =           0.0000     WEL_0           
                 DRN =           0.0000                   DRN =           0.0000     DRN_0           
                 RCH = 18511691953.1488                   RCH =     5451175.3161     RCH_0           

            TOTAL IN = 26816997324.5872              TOTAL IN =    20216648.3741

          OUT:                                     OUT:
          ----                                     ----
              STO-SS =           0.0000                STO-SS =           0.0000     STORAGE         
              STO-SY =  4653494184.6219                STO-SY =     2904009.2627     STORAGE         
                 WEL =  4032145131.8672                   WEL =     8993015.3260     WEL_0           
                 DRN = 18131350919.1026                   DRN =     8319623.7520     DRN_0           
                 RCH =           0.0000                   RCH =           0.0000     RCH_0           

           TOTAL OUT = 26816990235.5917             TOTAL OUT =    20216648.3407

            IN - OUT =        7088.9955              IN - OUT =       3.3386E-02

 PERCENT DISCREPANCY =           0.00     PERCENT DISCREPANCY =           0.00




         TIME SUMMARY AT END OF TIME STEP    1 IN STRESS PERIOD  391
                          TIME STEP LENGTH =    1.00000    
                        STRESS PERIOD TIME =    1.00000    
                     TOTAL SIMULATION TIME =    391.000    

end timestep


start timestep kper="392" kstp="1" mode="normal"


 OUTPUT CONTROL FOR STRESS PERIOD 392 IS REPEATED USING SETTINGS FROM A PREVIOUS STRESS PERIOD.


 STRESS PERIOD 392 IS TRANSIENT


 REUSING WELS FROM LAST STRESS PERIOD

 REUSING DRNS FROM LAST STRESS PERIOD

 REUSING RCHS FROM LAST STRESS PERIOD


  VOLUME BUDGET FOR ENTIRE MODEL AT END OF TIME STEP    1, STRESS PERIOD 392
  ---------------------------------------------------------------------------------------------------

     CUMULATIVE VOLUME      L**3       RATES FOR THIS TIME STEP      L**3/T          PACKAGE NAME    
     ------------------                 ------------------------                     ----------------

           IN:                                      IN:
           ---                                      ---
              STO-SS =           0.0000                STO-SS =           0.0000     STORAGE         
              STO-SY =  8321839388.2680                STO-SY =    16534016.8296     STORAGE         
                 WEL =           0.0000                   WEL =           0.0000     WEL_0           
                 DRN =           0.0000                   DRN =           0.0000     DRN_0           
                 RCH = 18522280917.4375                   RCH =    10588964.2887     RCH_0           

            TOTAL IN = 26844120305.7055              TOTAL IN =    27122981.1183

          OUT:                                     OUT:
          ----                                     ----
              STO-SS =           0.0000                STO-SS =           0.0000     STORAGE         
              STO-SY =  4657393058.7876                STO-SY =     3898874.1657     STORAGE         
                 WEL =  4045898756.6636                   WEL =    13753624.7964     WEL_0           
                 DRN = 18140821377.3593                   DRN =     9470458.2567     DRN_0           
                 RCH =           0.0000                   RCH =           0.0000     RCH_0           

           TOTAL OUT = 26844113192.8105             TOTAL OUT =    27122957.2188

            IN - OUT =        7112.8950              IN - OUT =          23.8995

 PERCENT DISCREPANCY =           0.00     PERCENT DISCREPANCY =           0.00




         TIME SUMMARY AT END OF TIME STEP    1 IN STRESS PERIOD  392
                          TIME STEP LENGTH =    1.00000    
                        STRESS PERIOD TIME =    1.00000    
                     TOTAL SIMULATION TIME =    392.000    

end timestep


start timestep kper="393" kstp="1" mode="normal"


 OUTPUT CONTROL FOR STRESS PERIOD 393 IS REPEATED USING SETTINGS FROM A PREVIOUS STRESS PERIOD.


 STRESS PERIOD 393 IS TRANSIENT


 REUSING WELS FROM LAST STRESS PERIOD

 REUSING DRNS FROM LAST STRESS PERIOD

 REUSING RCHS FROM LAST STRESS PERIOD


  VOLUME BUDGET FOR ENTIRE MODEL AT END OF TIME STEP    1, STRESS PERIOD 393
  ---------------------------------------------------------------------------------------------------

     CUMULATIVE VOLUME      L**3       RATES FOR THIS TIME STEP      L**3/T          PACKAGE NAME    
     ------------------                 ------------------------                     ----------------

           IN:                                      IN:
           ---                                      ---
              STO-SS =           0.0000                STO-SS =           0.0000     STORAGE         
              STO-SY =  8329446506.4997                STO-SY =     7607118.2317     STORAGE         
                 WEL =           0.0000                   WEL =           0.0000     WEL_0           
                 DRN =           0.0000                   DRN =           0.0000     DRN_0           
                 RCH = 18552757018.6574                   RCH =    30476101.2199     RCH_0           

            TOTAL IN = 26882203525.1570              TOTAL IN =    38083219.4516

          OUT:                                     OUT:
          ----                                     ----
              STO-SS =           0.0000                STO-SS =           0.0000     STORAGE         
              STO-SY =  4676769704.4415                STO-SY =    19376645.6539     STORAGE         
                 WEL =  4055321051.1509                   WEL =     9422294.4873     WEL_0           
                 DRN = 18150105656.5245                   DRN =     9284279.1652     DRN_0           
                 RCH =           0.0000                   RCH =           0.0000     RCH_0           

           TOTAL OUT = 26882196412.1169             TOTAL OUT =    38083219.3064

            IN - OUT =        7113.0402              IN - OUT =           0.1452

 PERCENT DISCREPANCY =           0.00     PERCENT DISCREPANCY =           0.00




         TIME SUMMARY AT END OF TIME STEP    1 IN STRESS PERIOD  393
                          TIME STEP LENGTH =    1.00000    
                        STRESS PERIOD TIME =    1.00000    
                     TOTAL SIMULATION TIME =    393.000    

end timestep


start timestep kper="394" kstp="1" mode="normal"


 OUTPUT CONTROL FOR STRESS PERIOD 394 IS REPEATED USING SETTINGS FROM A PREVIOUS STRESS PERIOD.


 STRESS PERIOD 394 IS TRANSIENT


 REUSING WELS FROM LAST STRESS PERIOD

 REUSING DRNS FROM LAST STRESS PERIOD

 REUSING RCHS FROM LAST STRESS PERIOD


  VOLUME BUDGET FOR ENTIRE MODEL AT END OF TIME STEP    1, STRESS PERIOD 394
  ---------------------------------------------------------------------------------------------------

     CUMULATIVE VOLUME      L**3       RATES FOR THIS TIME STEP      L**3/T          PACKAGE NAME    
     ------------------                 ------------------------                     ----------------

           IN:                                      IN:
           ---                                      ---
              STO-SS =           0.0000                STO-SS =           0.0000     STORAGE         
              STO-SY =  8341318388.2004                STO-SY =    11871881.7008     STORAGE         
                 WEL =           0.0000                   WEL =           0.0000     WEL_0           
                 DRN =           0.0000                   DRN =           0.0000     DRN_0           
                 RCH = 18566278435.3246                   RCH =    13521416.6672     RCH_0           

            TOTAL IN = 26907596823.5250              TOTAL IN =    25393298.3680

          OUT:                                     OUT:
          ----                                     ----
              STO-SS =           0.0000                STO-SS =           0.0000     STORAGE         
              STO-SY =  4684644623.6012                STO-SY =     7874919.1597     STORAGE         
                 WEL =  4062966730.9579                   WEL =     7645679.8070     WEL_0           
                 DRN = 18159978348.8450                   DRN =     9872692.3205     DRN_0           
                 RCH =           0.0000                   RCH =           0.0000     RCH_0           

           TOTAL OUT = 26907589703.4041             TOTAL OUT =    25393291.2873

            IN - OUT =        7120.1209              IN - OUT =           7.0807

 PERCENT DISCREPANCY =           0.00     PERCENT DISCREPANCY =           0.00




         TIME SUMMARY AT END OF TIME STEP    1 IN STRESS PERIOD  394
                          TIME STEP LENGTH =    1.00000    
                        STRESS PERIOD TIME =    1.00000    
                     TOTAL SIMULATION TIME =    394.000    

end timestep


start timestep kper="395" kstp="1" mode="normal"


 OUTPUT CONTROL FOR STRESS PERIOD 395 IS REPEATED USING SETTINGS FROM A PREVIOUS STRESS PERIOD.


 STRESS PERIOD 395 IS TRANSIENT


 REUSING WELS FROM LAST STRESS PERIOD

 REUSING DRNS FROM LAST STRESS PERIOD

 REUSING RCHS FROM LAST STRESS PERIOD


  VOLUME BUDGET FOR ENTIRE MODEL AT END OF TIME STEP    1, STRESS PERIOD 395
  ---------------------------------------------------------------------------------------------------

     CUMULATIVE VOLUME      L**3       RATES FOR THIS TIME STEP      L**3/T          PACKAGE NAME    
     ------------------                 ------------------------                     ----------------

           IN:                                      IN:
           ---                                      ---
              STO-SS =           0.0000                STO-SS =           0.0000     STORAGE         
              STO-SY =  8355851202.3617                STO-SY =    14532814.1613     STORAGE         
                 WEL =           0.0000                   WEL =           0.0000     WEL_0           
                 DRN =           0.0000                   DRN =           0.0000     DRN_0           
                 RCH = 18572588841.2933                   RCH =     6310405.9687     RCH_0           

            TOTAL IN = 26928440043.6550              TOTAL IN =    20843220.1300

          OUT:                                     OUT:
          ----                                     ----
              STO-SS =           0.0000                STO-SS =           0.0000     STORAGE         
              STO-SY =  4687965290.5706                STO-SY =     3320666.9694     STORAGE         
                 WEL =  4071950842.4985                   WEL =     8984111.5406     WEL_0           
                 DRN = 18168516795.9274                   DRN =     8538447.0824     DRN_0           
                 RCH =           0.0000                   RCH =           0.0000     RCH_0           

           TOTAL OUT = 26928432928.9965             TOTAL OUT =    20843225.5924

            IN - OUT =        7114.6585              IN - OUT =          -5.4624

 PERCENT DISCREPANCY =           0.00     PERCENT DISCREPANCY =          -0.00




         TIME SUMMARY AT END OF TIME STEP    1 IN STRESS PERIOD  395
                          TIME STEP LENGTH =    1.00000    
                        STRESS PERIOD TIME =    1.00000    
                     TOTAL SIMULATION TIME =    395.000    

end timestep


start timestep kper="396" kstp="1" mode="normal"


 OUTPUT CONTROL FOR STRESS PERIOD 396 IS REPEATED USING SETTINGS FROM A PREVIOUS STRESS PERIOD.


 STRESS PERIOD 396 IS TRANSIENT


 REUSING WELS FROM LAST STRESS PERIOD

 REUSING DRNS FROM LAST STRESS PERIOD

 REUSING RCHS FROM LAST STRESS PERIOD


  VOLUME BUDGET FOR ENTIRE MODEL AT END OF TIME STEP    1, STRESS PERIOD 396
  ---------------------------------------------------------------------------------------------------

     CUMULATIVE VOLUME      L**3       RATES FOR THIS TIME STEP      L**3/T          PACKAGE NAME    
     ------------------                 ------------------------                     ----------------

           IN:                                      IN:
           ---                                      ---
              STO-SS =           0.0000                STO-SS =           0.0000     STORAGE         
              STO-SY =  8362548389.0567                STO-SY =     6697186.6950     STORAGE         
                 WEL =           0.0000                   WEL =           0.0000     WEL_0           
                 DRN =           0.0000                   DRN =           0.0000     DRN_0           
                 RCH = 18606569993.4807                   RCH =    33981152.1874     RCH_0           

            TOTAL IN = 26969118382.5374              TOTAL IN =    40678338.8824

          OUT:                                     OUT:
          ----                                     ----
              STO-SS =           0.0000                STO-SS =           0.0000     STORAGE         
              STO-SY =  4710091018.8700                STO-SY =    22125728.2994     STORAGE         
                 WEL =  4080464568.3996                   WEL =     8513725.9011     WEL_0           
                 DRN = 18178555679.9361                   DRN =    10038884.0087     DRN_0           
                 RCH =           0.0000                   RCH =           0.0000     RCH_0           

           TOTAL OUT = 26969111267.2056             TOTAL OUT =    40678338.2092

            IN - OUT =        7115.3317              IN - OUT =           0.6732

 PERCENT DISCREPANCY =           0.00     PERCENT DISCREPANCY =           0.00




         TIME SUMMARY AT END OF TIME STEP    1 IN STRESS PERIOD  396
                          TIME STEP LENGTH =    1.00000    
                        STRESS PERIOD TIME =    1.00000    
                     TOTAL SIMULATION TIME =    396.000    

end timestep


start timestep kper="397" kstp="1" mode="normal"


 OUTPUT CONTROL FOR STRESS PERIOD 397 IS REPEATED USING SETTINGS FROM A PREVIOUS STRESS PERIOD.


 STRESS PERIOD 397 IS TRANSIENT


 REUSING WELS FROM LAST STRESS PERIOD

 REUSING DRNS FROM LAST STRESS PERIOD

 REUSING RCHS FROM LAST STRESS PERIOD


  VOLUME BUDGET FOR ENTIRE MODEL AT END OF TIME STEP    1, STRESS PERIOD 397
  ---------------------------------------------------------------------------------------------------

     CUMULATIVE VOLUME      L**3       RATES FOR THIS TIME STEP      L**3/T          PACKAGE NAME    
     ------------------                 ------------------------                     ----------------

           IN:                                      IN:
           ---                                      ---
              STO-SS =           0.0000                STO-SS =           0.0000     STORAGE         
              STO-SY =  8382253288.5227                STO-SY =    19704899.4660     STORAGE         
                 WEL =           0.0000                   WEL =           0.0000     WEL_0           
                 DRN =           0.0000                   DRN =           0.0000     DRN_0           
                 RCH = 18661502062.3825                   RCH =    54932068.9019     RCH_0           

            TOTAL IN = 27043755350.9053              TOTAL IN =    74636968.3679

          OUT:                                     OUT:
          ----                                     ----
              STO-SS =           0.0000                STO-SS =           0.0000     STORAGE         
              STO-SY =  4741920844.5662                STO-SY =    31829825.6963     STORAGE         
                 WEL =  4114071032.6885                   WEL =    33606464.2889     WEL_0           
                 DRN = 18187756362.6725                   DRN =     9200682.7365     DRN_0           
                 RCH =           0.0000                   RCH =           0.0000     RCH_0           

           TOTAL OUT = 27043748239.9273             TOTAL OUT =    74636972.7217

            IN - OUT =        7110.9780              IN - OUT =          -4.3538

 PERCENT DISCREPANCY =           0.00     PERCENT DISCREPANCY =          -0.00




         TIME SUMMARY AT END OF TIME STEP    1 IN STRESS PERIOD  397
                          TIME STEP LENGTH =    1.00000    
                        STRESS PERIOD TIME =    1.00000    
                     TOTAL SIMULATION TIME =    397.000    

end timestep


start timestep kper="398" kstp="1" mode="normal"


 OUTPUT CONTROL FOR STRESS PERIOD 398 IS REPEATED USING SETTINGS FROM A PREVIOUS STRESS PERIOD.


 STRESS PERIOD 398 IS TRANSIENT


 REUSING WELS FROM LAST STRESS PERIOD

 REUSING DRNS FROM LAST STRESS PERIOD

 REUSING RCHS FROM LAST STRESS PERIOD


  VOLUME BUDGET FOR ENTIRE MODEL AT END OF TIME STEP    1, STRESS PERIOD 398
  ---------------------------------------------------------------------------------------------------

     CUMULATIVE VOLUME      L**3       RATES FOR THIS TIME STEP      L**3/T          PACKAGE NAME    
     ------------------                 ------------------------                     ----------------

           IN:                                      IN:
           ---                                      ---
              STO-SS =           0.0000                STO-SS =           0.0000     STORAGE         
              STO-SY =  8399170665.9341                STO-SY =    16917377.4113     STORAGE         
                 WEL =           0.0000                   WEL =           0.0000     WEL_0           
                 DRN =           0.0000                   DRN =           0.0000     DRN_0           
                 RCH = 18704534650.8857                   RCH =    43032588.5032     RCH_0           

            TOTAL IN = 27103705316.8198              TOTAL IN =    59949965.9145

          OUT:                                     OUT:
          ----                                     ----
              STO-SS =           0.0000                STO-SS =           0.0000     STORAGE         
              STO-SY =  4771862602.2034                STO-SY =    29941757.6372     STORAGE         
                 WEL =  4132095641.4356                   WEL =    18024608.7471     WEL_0           
                 DRN = 18199739961.8765                   DRN =    11983599.2039     DRN_0           
                 RCH =           0.0000                   RCH =           0.0000     RCH_0           

           TOTAL OUT = 27103698205.5155             TOTAL OUT =    59949965.5882

            IN - OUT =        7111.3042              IN - OUT =           0.3263

 PERCENT DISCREPANCY =           0.00     PERCENT DISCREPANCY =           0.00




         TIME SUMMARY AT END OF TIME STEP    1 IN STRESS PERIOD  398
                          TIME STEP LENGTH =    1.00000    
                        STRESS PERIOD TIME =    1.00000    
                     TOTAL SIMULATION TIME =    398.000    

end timestep


start timestep kper="399" kstp="1" mode="normal"


 OUTPUT CONTROL FOR STRESS PERIOD 399 IS REPEATED USING SETTINGS FROM A PREVIOUS STRESS PERIOD.


 STRESS PERIOD 399 IS TRANSIENT


 REUSING WELS FROM LAST STRESS PERIOD

 REUSING DRNS FROM LAST STRESS PERIOD

 REUSING RCHS FROM LAST STRESS PERIOD


  VOLUME BUDGET FOR ENTIRE MODEL AT END OF TIME STEP    1, STRESS PERIOD 399
  ---------------------------------------------------------------------------------------------------

     CUMULATIVE VOLUME      L**3       RATES FOR THIS TIME STEP      L**3/T          PACKAGE NAME    
     ------------------                 ------------------------                     ----------------

           IN:                                      IN:
           ---                                      ---
              STO-SS =           0.0000                STO-SS =           0.0000     STORAGE         
              STO-SY =  8403366146.7163                STO-SY =     4195480.7822     STORAGE         
                 WEL =           0.0000                   WEL =           0.0000     WEL_0           
                 DRN =           0.0000                   DRN =           0.0000     DRN_0           
                 RCH = 18796166751.8474                   RCH =    91632100.9617     RCH_0           

            TOTAL IN = 27199532898.5637              TOTAL IN =    95827581.7440

          OUT:                                     OUT:
          ----                                     ----
              STO-SS =           0.0000                STO-SS =           0.0000     STORAGE         
              STO-SY =  4840870867.2145                STO-SY =    69008265.0110     STORAGE         
                 WEL =  4145713085.5031                   WEL =    13617444.0676     WEL_0           
                 DRN = 18212941834.9500                   DRN =    13201873.0736     DRN_0           
                 RCH =           0.0000                   RCH =           0.0000     RCH_0           

           TOTAL OUT = 27199525787.6677             TOTAL OUT =    95827582.1522

            IN - OUT =        7110.8961              IN - OUT =          -0.4082

 PERCENT DISCREPANCY =           0.00     PERCENT DISCREPANCY =          -0.00




         TIME SUMMARY AT END OF TIME STEP    1 IN STRESS PERIOD  399
                          TIME STEP LENGTH =    1.00000    
                        STRESS PERIOD TIME =    1.00000    
                     TOTAL SIMULATION TIME =    399.000    

end timestep


start timestep kper="400" kstp="1" mode="normal"


 OUTPUT CONTROL FOR STRESS PERIOD 400 IS REPEATED USING SETTINGS FROM A PREVIOUS STRESS PERIOD.


 STRESS PERIOD 400 IS TRANSIENT


 REUSING WELS FROM LAST STRESS PERIOD

 REUSING DRNS FROM LAST STRESS PERIOD

 REUSING RCHS FROM LAST STRESS PERIOD


  VOLUME BUDGET FOR ENTIRE MODEL AT END OF TIME STEP    1, STRESS PERIOD 400
  ---------------------------------------------------------------------------------------------------

     CUMULATIVE VOLUME      L**3       RATES FOR THIS TIME STEP      L**3/T          PACKAGE NAME    
     ------------------                 ------------------------                     ----------------

           IN:                                      IN:
           ---                                      ---
              STO-SS =           0.0000                STO-SS =           0.0000     STORAGE         
              STO-SY =  8421810868.0818                STO-SY =    18444721.3655     STORAGE         
                 WEL =           0.0000                   WEL =           0.0000     WEL_0           
                 DRN =           0.0000                   DRN =           0.0000     DRN_0           
                 RCH = 18836612502.1800                   RCH =    40445750.3326     RCH_0           

            TOTAL IN = 27258423370.2619              TOTAL IN =    58890471.6981

          OUT:                                     OUT:
          ----                                     ----
              STO-SS =           0.0000                STO-SS =           0.0000     STORAGE         
              STO-SY =  4869973757.1690                STO-SY =    29102889.9545     STORAGE         
                 WEL =  4163655165.6679                   WEL =    17942080.1648     WEL_0           
                 DRN = 18224787336.5124                   DRN =    11845501.5623     DRN_0           
                 RCH =           0.0000                   RCH =           0.0000     RCH_0           

           TOTAL OUT = 27258416259.3493             TOTAL OUT =    58890471.6816

            IN - OUT =        7110.9126              IN - OUT =       1.6508E-02

 PERCENT DISCREPANCY =           0.00     PERCENT DISCREPANCY =           0.00




         TIME SUMMARY AT END OF TIME STEP    1 IN STRESS PERIOD  400
                          TIME STEP LENGTH =    1.00000    
                        STRESS PERIOD TIME =    1.00000    
                     TOTAL SIMULATION TIME =    400.000    

end timestep


start timestep kper="401" kstp="1" mode="normal"


 OUTPUT CONTROL FOR STRESS PERIOD 401 IS REPEATED USING SETTINGS FROM A PREVIOUS STRESS PERIOD.


 STRESS PERIOD 401 IS TRANSIENT


 REUSING WELS FROM LAST STRESS PERIOD

 REUSING DRNS FROM LAST STRESS PERIOD

 REUSING RCHS FROM LAST STRESS PERIOD


  VOLUME BUDGET FOR ENTIRE MODEL AT END OF TIME STEP    1, STRESS PERIOD 401
  ---------------------------------------------------------------------------------------------------

     CUMULATIVE VOLUME      L**3       RATES FOR THIS TIME STEP      L**3/T          PACKAGE NAME    
     ------------------                 ------------------------                     ----------------

           IN:                                      IN:
           ---                                      ---
              STO-SS =           0.0000                STO-SS =           0.0000     STORAGE         
              STO-SY =  8448701844.7564                STO-SY =    26890976.6746     STORAGE         
                 WEL =           0.0000                   WEL =           0.0000     WEL_0           
                 DRN =           0.0000                   DRN =           0.0000     DRN_0           
                 RCH = 18864210303.5420                   RCH =    27597801.3620     RCH_0           

            TOTAL IN = 27312912148.2984              TOTAL IN =    54488778.0366

          OUT:                                     OUT:
          ----                                     ----
              STO-SS =           0.0000                STO-SS =           0.0000     STORAGE         
              STO-SY =  4883636930.3701                STO-SY =    13663173.2011     STORAGE         
                 WEL =  4194572485.3946                   WEL =    30917319.7267     WEL_0           
                 DRN = 18234695647.2198                   DRN =     9908310.7074     DRN_0           
                 RCH =           0.0000                   RCH =           0.0000     RCH_0           

           TOTAL OUT = 27312905062.9845             TOTAL OUT =    54488803.6352

            IN - OUT =        7085.3140              IN - OUT =         -25.5986

 PERCENT DISCREPANCY =           0.00     PERCENT DISCREPANCY =          -0.00




         TIME SUMMARY AT END OF TIME STEP    1 IN STRESS PERIOD  401
                          TIME STEP LENGTH =    1.00000    
                        STRESS PERIOD TIME =    1.00000    
                     TOTAL SIMULATION TIME =    401.000    

end timestep


start timestep kper="402" kstp="1" mode="normal"


 OUTPUT CONTROL FOR STRESS PERIOD 402 IS REPEATED USING SETTINGS FROM A PREVIOUS STRESS PERIOD.


 STRESS PERIOD 402 IS TRANSIENT


 REUSING WELS FROM LAST STRESS PERIOD

 REUSING DRNS FROM LAST STRESS PERIOD

 REUSING RCHS FROM LAST STRESS PERIOD


  VOLUME BUDGET FOR ENTIRE MODEL AT END OF TIME STEP    1, STRESS PERIOD 402
  ---------------------------------------------------------------------------------------------------

     CUMULATIVE VOLUME      L**3       RATES FOR THIS TIME STEP      L**3/T          PACKAGE NAME    
     ------------------                 ------------------------                     ----------------

           IN:                                      IN:
           ---                                      ---
              STO-SS =           0.0000                STO-SS =           0.0000     STORAGE         
              STO-SY =  8452777240.4615                STO-SY =     4075395.7051     STORAGE         
                 WEL =           0.0000                   WEL =           0.0000     WEL_0           
                 DRN =           0.0000                   DRN =           0.0000     DRN_0           
                 RCH = 18931831768.8928                   RCH =    67621465.3508     RCH_0           

            TOTAL IN = 27384609009.3543              TOTAL IN =    71696861.0558

          OUT:                                     OUT:
          ----                                     ----
              STO-SS =           0.0000                STO-SS =           0.0000     STORAGE         
              STO-SY =  4930527219.7418                STO-SY =    46890289.3718     STORAGE         
                 WEL =  4206200220.7364                   WEL =    11627735.3418     WEL_0           
                 DRN = 18247874463.5717                   DRN =    13178816.3519     DRN_0           
                 RCH =           0.0000                   RCH =           0.0000     RCH_0           

           TOTAL OUT = 27384601904.0499             TOTAL OUT =    71696841.0655

            IN - OUT =        7105.3043              IN - OUT =          19.9904

 PERCENT DISCREPANCY =           0.00     PERCENT DISCREPANCY =           0.00




         TIME SUMMARY AT END OF TIME STEP    1 IN STRESS PERIOD  402
                          TIME STEP LENGTH =    1.00000    
                        STRESS PERIOD TIME =    1.00000    
                     TOTAL SIMULATION TIME =    402.000    

end timestep


start timestep kper="403" kstp="1" mode="normal"


 OUTPUT CONTROL FOR STRESS PERIOD 403 IS REPEATED USING SETTINGS FROM A PREVIOUS STRESS PERIOD.


 STRESS PERIOD 403 IS TRANSIENT


 REUSING WELS FROM LAST STRESS PERIOD

 REUSING DRNS FROM LAST STRESS PERIOD

 REUSING RCHS FROM LAST STRESS PERIOD


  VOLUME BUDGET FOR ENTIRE MODEL AT END OF TIME STEP    1, STRESS PERIOD 403
  ---------------------------------------------------------------------------------------------------

     CUMULATIVE VOLUME      L**3       RATES FOR THIS TIME STEP      L**3/T          PACKAGE NAME    
     ------------------                 ------------------------                     ----------------

           IN:                                      IN:
           ---                                      ---
              STO-SS =           0.0000                STO-SS =           0.0000     STORAGE         
              STO-SY =  8467409286.5476                STO-SY =    14632046.0861     STORAGE         
                 WEL =           0.0000                   WEL =           0.0000     WEL_0           
                 DRN =           0.0000                   DRN =           0.0000     DRN_0           
                 RCH = 18950834856.4804                   RCH =    19003087.5875     RCH_0           

            TOTAL IN = 27418244143.0279              TOTAL IN =    33635133.6736

          OUT:                                     OUT:
          ----                                     ----
              STO-SS =           0.0000                STO-SS =           0.0000     STORAGE         
              STO-SY =  4941644838.9708                STO-SY =    11117619.2290     STORAGE         
                 WEL =  4218098935.0900                   WEL =    11898714.3536     WEL_0           
                 DRN = 18258493245.4762                   DRN =    10618781.9045     DRN_0           
                 RCH =           0.0000                   RCH =           0.0000     RCH_0           

           TOTAL OUT = 27418237019.5371             TOTAL OUT =    33635115.4871

            IN - OUT =        7123.4909              IN - OUT =          18.1865

 PERCENT DISCREPANCY =           0.00     PERCENT DISCREPANCY =           0.00




         TIME SUMMARY AT END OF TIME STEP    1 IN STRESS PERIOD  403
                          TIME STEP LENGTH =    1.00000    
                        STRESS PERIOD TIME =    1.00000    
                     TOTAL SIMULATION TIME =    403.000    

end timestep


start timestep kper="404" kstp="1" mode="normal"


 OUTPUT CONTROL FOR STRESS PERIOD 404 IS REPEATED USING SETTINGS FROM A PREVIOUS STRESS PERIOD.


 STRESS PERIOD 404 IS TRANSIENT


 REUSING WELS FROM LAST STRESS PERIOD

 REUSING DRNS FROM LAST STRESS PERIOD

 REUSING RCHS FROM LAST STRESS PERIOD


  VOLUME BUDGET FOR ENTIRE MODEL AT END OF TIME STEP    1, STRESS PERIOD 404
  ---------------------------------------------------------------------------------------------------

     CUMULATIVE VOLUME      L**3       RATES FOR THIS TIME STEP      L**3/T          PACKAGE NAME    
     ------------------                 ------------------------                     ----------------

           IN:                                      IN:
           ---                                      ---
              STO-SS =           0.0000                STO-SS =           0.0000     STORAGE         
              STO-SY =  8481549135.3968                STO-SY =    14139848.8492     STORAGE         
                 WEL =           0.0000                   WEL =           0.0000     WEL_0           
                 DRN =           0.0000                   DRN =           0.0000     DRN_0           
                 RCH = 18970579415.1233                   RCH =    19744558.6429     RCH_0           

            TOTAL IN = 27452128550.5201              TOTAL IN =    33884407.4921

          OUT:                                     OUT:
          ----                                     ----
              STO-SS =           0.0000                STO-SS =           0.0000     STORAGE         
              STO-SY =  4952735968.5048                STO-SY =    11091129.5340     STORAGE         
                 WEL =  4229515983.3086                   WEL =    11417048.2186     WEL_0           
                 DRN = 18269869453.1523                   DRN =    11376207.6761     DRN_0           
                 RCH =           0.0000                   RCH =           0.0000     RCH_0           

           TOTAL OUT = 27452121404.9657             TOTAL OUT =    33884385.4286

            IN - OUT =        7145.5544              IN - OUT =          22.0635

 PERCENT DISCREPANCY =           0.00     PERCENT DISCREPANCY =           0.00




         TIME SUMMARY AT END OF TIME STEP    1 IN STRESS PERIOD  404
                          TIME STEP LENGTH =    1.00000    
                        STRESS PERIOD TIME =    1.00000    
                     TOTAL SIMULATION TIME =    404.000    

end timestep


start timestep kper="405" kstp="1" mode="normal"


 OUTPUT CONTROL FOR STRESS PERIOD 405 IS REPEATED USING SETTINGS FROM A PREVIOUS STRESS PERIOD.


 STRESS PERIOD 405 IS TRANSIENT


 REUSING WELS FROM LAST STRESS PERIOD

 REUSING DRNS FROM LAST STRESS PERIOD

 REUSING RCHS FROM LAST STRESS PERIOD


  VOLUME BUDGET FOR ENTIRE MODEL AT END OF TIME STEP    1, STRESS PERIOD 405
  ---------------------------------------------------------------------------------------------------

     CUMULATIVE VOLUME      L**3       RATES FOR THIS TIME STEP      L**3/T          PACKAGE NAME    
     ------------------                 ------------------------                     ----------------

           IN:                                      IN:
           ---                                      ---
              STO-SS =           0.0000                STO-SS =           0.0000     STORAGE         
              STO-SY =  8495300064.6432                STO-SY =    13750929.2464     STORAGE         
                 WEL =           0.0000                   WEL =           0.0000     WEL_0           
                 DRN =           0.0000                   DRN =           0.0000     DRN_0           
                 RCH = 18994986151.5263                   RCH =    24406736.4030     RCH_0           

            TOTAL IN = 27490286216.1694              TOTAL IN =    38157665.6494

          OUT:                                     OUT:
          ----                                     ----
              STO-SS =           0.0000                STO-SS =           0.0000     STORAGE         
              STO-SY =  4966591801.1125                STO-SY =    13855832.6077     STORAGE         
                 WEL =  4243206579.3859                   WEL =    13690596.0773     WEL_0           
                 DRN = 18280480705.8920                   DRN =    10611252.7397     DRN_0           
                 RCH =           0.0000                   RCH =           0.0000     RCH_0           

           TOTAL OUT = 27490279086.3904             TOTAL OUT =    38157681.4247

            IN - OUT =        7129.7791              IN - OUT =         -15.7753

 PERCENT DISCREPANCY =           0.00     PERCENT DISCREPANCY =          -0.00




         TIME SUMMARY AT END OF TIME STEP    1 IN STRESS PERIOD  405
                          TIME STEP LENGTH =    1.00000    
                        STRESS PERIOD TIME =    1.00000    
                     TOTAL SIMULATION TIME =    405.000    

end timestep


start timestep kper="406" kstp="1" mode="normal"


 OUTPUT CONTROL FOR STRESS PERIOD 406 IS REPEATED USING SETTINGS FROM A PREVIOUS STRESS PERIOD.


 STRESS PERIOD 406 IS TRANSIENT


 REUSING WELS FROM LAST STRESS PERIOD

 REUSING DRNS FROM LAST STRESS PERIOD

 REUSING RCHS FROM LAST STRESS PERIOD


  VOLUME BUDGET FOR ENTIRE MODEL AT END OF TIME STEP    1, STRESS PERIOD 406
  ---------------------------------------------------------------------------------------------------

     CUMULATIVE VOLUME      L**3       RATES FOR THIS TIME STEP      L**3/T          PACKAGE NAME    
     ------------------                 ------------------------                     ----------------

           IN:                                      IN:
           ---                                      ---
              STO-SS =           0.0000                STO-SS =           0.0000     STORAGE         
              STO-SY =  8518042412.7948                STO-SY =    22742348.1517     STORAGE         
                 WEL =           0.0000                   WEL =           0.0000     WEL_0           
                 DRN =           0.0000                   DRN =           0.0000     DRN_0           
                 RCH = 19015208246.1940                   RCH =    20222094.6677     RCH_0           

            TOTAL IN = 27533250658.9888              TOTAL IN =    42964442.8194

          OUT:                                     OUT:
          ----                                     ----
              STO-SS =           0.0000                STO-SS =           0.0000     STORAGE         
              STO-SY =  4974703349.3994                STO-SY =     8111548.2869     STORAGE         
                 WEL =  4267183685.4300                   WEL =    23977106.0441     WEL_0           
                 DRN = 18291356494.3455                   DRN =    10875788.4534     DRN_0           
                 RCH =           0.0000                   RCH =           0.0000     RCH_0           

           TOTAL OUT = 27533243529.1749             TOTAL OUT =    42964442.7845

            IN - OUT =        7129.8140              IN - OUT =       3.4890E-02

 PERCENT DISCREPANCY =           0.00     PERCENT DISCREPANCY =           0.00




         TIME SUMMARY AT END OF TIME STEP    1 IN STRESS PERIOD  406
                          TIME STEP LENGTH =    1.00000    
                        STRESS PERIOD TIME =    1.00000    
                     TOTAL SIMULATION TIME =    406.000    

end timestep


start timestep kper="407" kstp="1" mode="normal"


 OUTPUT CONTROL FOR STRESS PERIOD 407 IS REPEATED USING SETTINGS FROM A PREVIOUS STRESS PERIOD.


 STRESS PERIOD 407 IS TRANSIENT


 REUSING WELS FROM LAST STRESS PERIOD

 REUSING DRNS FROM LAST STRESS PERIOD

 REUSING RCHS FROM LAST STRESS PERIOD


  VOLUME BUDGET FOR ENTIRE MODEL AT END OF TIME STEP    1, STRESS PERIOD 407
  ---------------------------------------------------------------------------------------------------

     CUMULATIVE VOLUME      L**3       RATES FOR THIS TIME STEP      L**3/T          PACKAGE NAME    
     ------------------                 ------------------------                     ----------------

           IN:                                      IN:
           ---                                      ---
              STO-SS =           0.0000                STO-SS =           0.0000     STORAGE         
              STO-SY =  8534610939.3598                STO-SY =    16568526.5650     STORAGE         
                 WEL =           0.0000                   WEL =           0.0000     WEL_0           
                 DRN =           0.0000                   DRN =           0.0000     DRN_0           
                 RCH = 19050960822.7720                   RCH =    35752576.5780     RCH_0           

            TOTAL IN = 27585571762.1319              TOTAL IN =    52321103.1430

          OUT:                                     OUT:
          ----                                     ----
              STO-SS =           0.0000                STO-SS =           0.0000     STORAGE         
              STO-SY =  4998004816.9751                STO-SY =    23301467.5757     STORAGE         
                 WEL =  4284119523.0872                   WEL =    16935837.6571     WEL_0           
                 DRN = 18303440295.0976                   DRN =    12083800.7521     DRN_0           
                 RCH =           0.0000                   RCH =           0.0000     RCH_0           

           TOTAL OUT = 27585564635.1598             TOTAL OUT =    52321105.9849

            IN - OUT =        7126.9721              IN - OUT =          -2.8419

 PERCENT DISCREPANCY =           0.00     PERCENT DISCREPANCY =          -0.00




         TIME SUMMARY AT END OF TIME STEP    1 IN STRESS PERIOD  407
                          TIME STEP LENGTH =    1.00000    
                        STRESS PERIOD TIME =    1.00000    
                     TOTAL SIMULATION TIME =    407.000    

end timestep


start timestep kper="408" kstp="1" mode="normal"


 OUTPUT CONTROL FOR STRESS PERIOD 408 IS REPEATED USING SETTINGS FROM A PREVIOUS STRESS PERIOD.


 STRESS PERIOD 408 IS TRANSIENT


 REUSING WELS FROM LAST STRESS PERIOD

 REUSING DRNS FROM LAST STRESS PERIOD

 REUSING RCHS FROM LAST STRESS PERIOD


  VOLUME BUDGET FOR ENTIRE MODEL AT END OF TIME STEP    1, STRESS PERIOD 408
  ---------------------------------------------------------------------------------------------------

     CUMULATIVE VOLUME      L**3       RATES FOR THIS TIME STEP      L**3/T          PACKAGE NAME    
     ------------------                 ------------------------                     ----------------

           IN:                                      IN:
           ---                                      ---
              STO-SS =           0.0000                STO-SS =           0.0000     STORAGE         
              STO-SY =  8557883789.2300                STO-SY =    23272849.8702     STORAGE         
                 WEL =           0.0000                   WEL =           0.0000     WEL_0           
                 DRN =           0.0000                   DRN =           0.0000     DRN_0           
                 RCH = 19070806314.6264                   RCH =    19845491.8543     RCH_0           

            TOTAL IN = 27628690103.8564              TOTAL IN =    43118341.7245

          OUT:                                     OUT:
          ----                                     ----
              STO-SS =           0.0000                STO-SS =           0.0000     STORAGE         
              STO-SY =  5005412470.3092                STO-SY =     7407653.3341     STORAGE         
                 WEL =  4308053660.0028                   WEL =    23934136.9157     WEL_0           
                 DRN = 18315216772.3741                   DRN =    11776477.2766     DRN_0           
                 RCH =           0.0000                   RCH =           0.0000     RCH_0           

           TOTAL OUT = 27628682902.6861             TOTAL OUT =    43118267.5263

            IN - OUT =        7201.1703              IN - OUT =          74.1982

 PERCENT DISCREPANCY =           0.00     PERCENT DISCREPANCY =           0.00




         TIME SUMMARY AT END OF TIME STEP    1 IN STRESS PERIOD  408
                          TIME STEP LENGTH =    1.00000    
                        STRESS PERIOD TIME =    1.00000    
                     TOTAL SIMULATION TIME =    408.000    

end timestep


start timestep kper="409" kstp="1" mode="normal"


 OUTPUT CONTROL FOR STRESS PERIOD 409 IS REPEATED USING SETTINGS FROM A PREVIOUS STRESS PERIOD.


 STRESS PERIOD 409 IS TRANSIENT


 REUSING WELS FROM LAST STRESS PERIOD

 REUSING DRNS FROM LAST STRESS PERIOD

 REUSING RCHS FROM LAST STRESS PERIOD


  VOLUME BUDGET FOR ENTIRE MODEL AT END OF TIME STEP    1, STRESS PERIOD 409
  ---------------------------------------------------------------------------------------------------

     CUMULATIVE VOLUME      L**3       RATES FOR THIS TIME STEP      L**3/T          PACKAGE NAME    
     ------------------                 ------------------------                     ----------------

           IN:                                      IN:
           ---                                      ---
              STO-SS =           0.0000                STO-SS =           0.0000     STORAGE         
              STO-SY =  8574249967.7358                STO-SY =    16366178.5058     STORAGE         
                 WEL =           0.0000                   WEL =           0.0000     WEL_0           
                 DRN =           0.0000                   DRN =           0.0000     DRN_0           
                 RCH = 19085517729.4676                   RCH =    14711414.8412     RCH_0           

            TOTAL IN = 27659767697.2034              TOTAL IN =    31077593.3470

          OUT:                                     OUT:
          ----                                     ----
              STO-SS =           0.0000                STO-SS =           0.0000     STORAGE         
              STO-SY =  5011869600.7932                STO-SY =     6457130.4840     STORAGE         
                 WEL =  4322183571.6975                   WEL =    14129911.6947     WEL_0           
                 DRN = 18325707332.8622                   DRN =    10490560.4881     DRN_0           
                 RCH =           0.0000                   RCH =           0.0000     RCH_0           

           TOTAL OUT = 27659760505.3530             TOTAL OUT =    31077602.6668

            IN - OUT =        7191.8504              IN - OUT =          -9.3198

 PERCENT DISCREPANCY =           0.00     PERCENT DISCREPANCY =          -0.00




         TIME SUMMARY AT END OF TIME STEP    1 IN STRESS PERIOD  409
                          TIME STEP LENGTH =    1.00000    
                        STRESS PERIOD TIME =    1.00000    
                     TOTAL SIMULATION TIME =    409.000    

end timestep


start timestep kper="410" kstp="1" mode="normal"


 OUTPUT CONTROL FOR STRESS PERIOD 410 IS REPEATED USING SETTINGS FROM A PREVIOUS STRESS PERIOD.


 STRESS PERIOD 410 IS TRANSIENT


 REUSING WELS FROM LAST STRESS PERIOD

 REUSING DRNS FROM LAST STRESS PERIOD

 REUSING RCHS FROM LAST STRESS PERIOD


  VOLUME BUDGET FOR ENTIRE MODEL AT END OF TIME STEP    1, STRESS PERIOD 410
  ---------------------------------------------------------------------------------------------------

     CUMULATIVE VOLUME      L**3       RATES FOR THIS TIME STEP      L**3/T          PACKAGE NAME    
     ------------------                 ------------------------                     ----------------

           IN:                                      IN:
           ---                                      ---
              STO-SS =           0.0000                STO-SS =           0.0000     STORAGE         
              STO-SY =  8592293939.5452                STO-SY =    18043971.8094     STORAGE         
                 WEL =           0.0000                   WEL =           0.0000     WEL_0           
                 DRN =           0.0000                   DRN =           0.0000     DRN_0           
                 RCH = 19097719405.6969                   RCH =    12201676.2293     RCH_0           

            TOTAL IN = 27690013345.2421              TOTAL IN =    30245648.0387

          OUT:                                     OUT:
          ----                                     ----
              STO-SS =           0.0000                STO-SS =           0.0000     STORAGE         
              STO-SY =  5015657113.9159                STO-SY =     3787513.1227     STORAGE         
                 WEL =  4336843878.1810                   WEL =    14660306.4835     WEL_0           
                 DRN = 18337505160.3772                   DRN =    11797827.5150     DRN_0           
                 RCH =           0.0000                   RCH =           0.0000     RCH_0           

           TOTAL OUT = 27690006152.4740             TOTAL OUT =    30245647.1211

            IN - OUT =        7192.7680              IN - OUT =           0.9176

 PERCENT DISCREPANCY =           0.00     PERCENT DISCREPANCY =           0.00




         TIME SUMMARY AT END OF TIME STEP    1 IN STRESS PERIOD  410
                          TIME STEP LENGTH =    1.00000    
                        STRESS PERIOD TIME =    1.00000    
                     TOTAL SIMULATION TIME =    410.000    

end timestep


start timestep kper="411" kstp="1" mode="normal"


 OUTPUT CONTROL FOR STRESS PERIOD 411 IS REPEATED USING SETTINGS FROM A PREVIOUS STRESS PERIOD.


 STRESS PERIOD 411 IS TRANSIENT


 REUSING WELS FROM LAST STRESS PERIOD

 REUSING DRNS FROM LAST STRESS PERIOD

 REUSING RCHS FROM LAST STRESS PERIOD


  VOLUME BUDGET FOR ENTIRE MODEL AT END OF TIME STEP    1, STRESS PERIOD 411
  ---------------------------------------------------------------------------------------------------

     CUMULATIVE VOLUME      L**3       RATES FOR THIS TIME STEP      L**3/T          PACKAGE NAME    
     ------------------                 ------------------------                     ----------------

           IN:                                      IN:
           ---                                      ---
              STO-SS =           0.0000                STO-SS =           0.0000     STORAGE         
              STO-SY =  8606833888.5792                STO-SY =    14539949.0341     STORAGE         
                 WEL =           0.0000                   WEL =           0.0000     WEL_0           
                 DRN =           0.0000                   DRN =           0.0000     DRN_0           
                 RCH = 19110325140.6710                   RCH =    12605734.9741     RCH_0           

            TOTAL IN = 27717159029.2502              TOTAL IN =    27145684.0082

          OUT:                                     OUT:
          ----                                     ----
              STO-SS =           0.0000                STO-SS =           0.0000     STORAGE         
              STO-SY =  5020710102.5933                STO-SY =     5052988.6774     STORAGE         
                 WEL =  4348465262.0985                   WEL =    11621383.9175     WEL_0           
                 DRN = 18347976471.7195                   DRN =    10471311.3423     DRN_0           
                 RCH =           0.0000                   RCH =           0.0000     RCH_0           

           TOTAL OUT = 27717151836.4113             TOTAL OUT =    27145683.9373

            IN - OUT =        7192.8389              IN - OUT =       7.0894E-02

 PERCENT DISCREPANCY =           0.00     PERCENT DISCREPANCY =           0.00




         TIME SUMMARY AT END OF TIME STEP    1 IN STRESS PERIOD  411
                          TIME STEP LENGTH =    1.00000    
                        STRESS PERIOD TIME =    1.00000    
                     TOTAL SIMULATION TIME =    411.000    

end timestep


start timestep kper="412" kstp="1" mode="normal"


 OUTPUT CONTROL FOR STRESS PERIOD 412 IS REPEATED USING SETTINGS FROM A PREVIOUS STRESS PERIOD.


 STRESS PERIOD 412 IS TRANSIENT


 REUSING WELS FROM LAST STRESS PERIOD

 REUSING DRNS FROM LAST STRESS PERIOD

 REUSING RCHS FROM LAST STRESS PERIOD


  VOLUME BUDGET FOR ENTIRE MODEL AT END OF TIME STEP    1, STRESS PERIOD 412
  ---------------------------------------------------------------------------------------------------

     CUMULATIVE VOLUME      L**3       RATES FOR THIS TIME STEP      L**3/T          PACKAGE NAME    
     ------------------                 ------------------------                     ----------------

           IN:                                      IN:
           ---                                      ---
              STO-SS =           0.0000                STO-SS =           0.0000     STORAGE         
              STO-SY =  8617363247.4357                STO-SY =    10529358.8565     STORAGE         
                 WEL =           0.0000                   WEL =           0.0000     WEL_0           
                 DRN =           0.0000                   DRN =           0.0000     DRN_0           
                 RCH = 19139206842.4511                   RCH =    28881701.7801     RCH_0           

            TOTAL IN = 27756570089.8869              TOTAL IN =    39411060.6366

          OUT:                                     OUT:
          ----                                     ----
              STO-SS =           0.0000                STO-SS =           0.0000     STORAGE         
              STO-SY =  5037428561.6919                STO-SY =    16718459.0986     STORAGE         
                 WEL =  4358566192.0043                   WEL =    10100929.9058     WEL_0           
                 DRN = 18360568143.3100                   DRN =    12591671.5905     DRN_0           
                 RCH =           0.0000                   RCH =           0.0000     RCH_0           

           TOTAL OUT = 27756562897.0063             TOTAL OUT =    39411060.5950

            IN - OUT =        7192.8805              IN - OUT =       4.1637E-02

 PERCENT DISCREPANCY =           0.00     PERCENT DISCREPANCY =           0.00




         TIME SUMMARY AT END OF TIME STEP    1 IN STRESS PERIOD  412
                          TIME STEP LENGTH =    1.00000    
                        STRESS PERIOD TIME =    1.00000    
                     TOTAL SIMULATION TIME =    412.000    

end timestep


start timestep kper="413" kstp="1" mode="normal"


 OUTPUT CONTROL FOR STRESS PERIOD 413 IS REPEATED USING SETTINGS FROM A PREVIOUS STRESS PERIOD.


 STRESS PERIOD 413 IS TRANSIENT


 REUSING WELS FROM LAST STRESS PERIOD

 REUSING DRNS FROM LAST STRESS PERIOD

 REUSING RCHS FROM LAST STRESS PERIOD


  VOLUME BUDGET FOR ENTIRE MODEL AT END OF TIME STEP    1, STRESS PERIOD 413
  ---------------------------------------------------------------------------------------------------

     CUMULATIVE VOLUME      L**3       RATES FOR THIS TIME STEP      L**3/T          PACKAGE NAME    
     ------------------                 ------------------------                     ----------------

           IN:                                      IN:
           ---                                      ---
              STO-SS =           0.0000                STO-SS =           0.0000     STORAGE         
              STO-SY =  8624491845.4972                STO-SY =     7128598.0615     STORAGE         
                 WEL =           0.0000                   WEL =           0.0000     WEL_0           
                 DRN =           0.0000                   DRN =           0.0000     DRN_0           
                 RCH = 19206571377.4628                   RCH =    67364535.0117     RCH_0           

            TOTAL IN = 27831063222.9600              TOTAL IN =    74493133.0731

          OUT:                                     OUT:
          ----                                     ----
              STO-SS =           0.0000                STO-SS =           0.0000     STORAGE         
              STO-SY =  5078724340.2139                STO-SY =    41295778.5220     STORAGE         
                 WEL =  4378097397.8582                   WEL =    19531205.8538     WEL_0           
                 DRN = 18374234287.5366                   DRN =    13666144.2266     DRN_0           
                 RCH =           0.0000                   RCH =           0.0000     RCH_0           

           TOTAL OUT = 27831056025.6087             TOTAL OUT =    74493128.6024

            IN - OUT =        7197.3513              IN - OUT =           4.4707

 PERCENT DISCREPANCY =           0.00     PERCENT DISCREPANCY =           0.00




         TIME SUMMARY AT END OF TIME STEP    1 IN STRESS PERIOD  413
                          TIME STEP LENGTH =    1.00000    
                        STRESS PERIOD TIME =    1.00000    
                     TOTAL SIMULATION TIME =    413.000    

end timestep


start timestep kper="414" kstp="1" mode="normal"


 OUTPUT CONTROL FOR STRESS PERIOD 414 IS REPEATED USING SETTINGS FROM A PREVIOUS STRESS PERIOD.


 STRESS PERIOD 414 IS TRANSIENT


 REUSING WELS FROM LAST STRESS PERIOD

 REUSING DRNS FROM LAST STRESS PERIOD

 REUSING RCHS FROM LAST STRESS PERIOD


  VOLUME BUDGET FOR ENTIRE MODEL AT END OF TIME STEP    1, STRESS PERIOD 414
  ---------------------------------------------------------------------------------------------------

     CUMULATIVE VOLUME      L**3       RATES FOR THIS TIME STEP      L**3/T          PACKAGE NAME    
     ------------------                 ------------------------                     ----------------

           IN:                                      IN:
           ---                                      ---
              STO-SS =           0.0000                STO-SS =           0.0000     STORAGE         
              STO-SY =  8631824799.9377                STO-SY =     7332954.4405     STORAGE         
                 WEL =           0.0000                   WEL =           0.0000     WEL_0           
                 DRN =           0.0000                   DRN =           0.0000     DRN_0           
                 RCH = 19296518672.9516                   RCH =    89947295.4888     RCH_0           

            TOTAL IN = 27928343472.8893              TOTAL IN =    97280249.9293

          OUT:                                     OUT:
          ----                                     ----
              STO-SS =           0.0000                STO-SS =           0.0000     STORAGE         
              STO-SY =  5147105818.2120                STO-SY =    68381477.9980     STORAGE         
                 WEL =  4388395644.4240                   WEL =    10298246.5659     WEL_0           
                 DRN = 18392834811.7888                   DRN =    18600524.2521     DRN_0           
                 RCH =           0.0000                   RCH =           0.0000     RCH_0           

           TOTAL OUT = 27928336274.4248             TOTAL OUT =    97280248.8160

            IN - OUT =        7198.4645              IN - OUT =           1.1133

 PERCENT DISCREPANCY =           0.00     PERCENT DISCREPANCY =           0.00




         TIME SUMMARY AT END OF TIME STEP    1 IN STRESS PERIOD  414
                          TIME STEP LENGTH =    1.00000    
                        STRESS PERIOD TIME =    1.00000    
                     TOTAL SIMULATION TIME =    414.000    

end timestep


start timestep kper="415" kstp="1" mode="normal"


 OUTPUT CONTROL FOR STRESS PERIOD 415 IS REPEATED USING SETTINGS FROM A PREVIOUS STRESS PERIOD.


 STRESS PERIOD 415 IS TRANSIENT


 REUSING WELS FROM LAST STRESS PERIOD

 REUSING DRNS FROM LAST STRESS PERIOD

 REUSING RCHS FROM LAST STRESS PERIOD


  VOLUME BUDGET FOR ENTIRE MODEL AT END OF TIME STEP    1, STRESS PERIOD 415
  ---------------------------------------------------------------------------------------------------

     CUMULATIVE VOLUME      L**3       RATES FOR THIS TIME STEP      L**3/T          PACKAGE NAME    
     ------------------                 ------------------------                     ----------------

           IN:                                      IN:
           ---                                      ---
              STO-SS =           0.0000                STO-SS =           0.0000     STORAGE         
              STO-SY =  8640701017.7478                STO-SY =     8876217.8101     STORAGE         
                 WEL =           0.0000                   WEL =           0.0000     WEL_0           
                 DRN =           0.0000                   DRN =           0.0000     DRN_0           
                 RCH = 19349234426.2225                   RCH =    52715753.2709     RCH_0           

            TOTAL IN = 27989935443.9703              TOTAL IN =    61591971.0810

          OUT:                                     OUT:
          ----                                     ----
              STO-SS =           0.0000                STO-SS =           0.0000     STORAGE         
              STO-SY =  5185044194.1864                STO-SY =    37938375.9745     STORAGE         
                 WEL =  4396134102.9833                   WEL =     7738458.5592     WEL_0           
                 DRN = 18408749943.8515                   DRN =    15915132.0627     DRN_0           
                 RCH =           0.0000                   RCH =           0.0000     RCH_0           

           TOTAL OUT = 27989928241.0211             TOTAL OUT =    61591966.5964

            IN - OUT =        7202.9491              IN - OUT =           4.4846

 PERCENT DISCREPANCY =           0.00     PERCENT DISCREPANCY =           0.00




         TIME SUMMARY AT END OF TIME STEP    1 IN STRESS PERIOD  415
                          TIME STEP LENGTH =    1.00000    
                        STRESS PERIOD TIME =    1.00000    
                     TOTAL SIMULATION TIME =    415.000    

end timestep


start timestep kper="416" kstp="1" mode="normal"


 OUTPUT CONTROL FOR STRESS PERIOD 416 IS REPEATED USING SETTINGS FROM A PREVIOUS STRESS PERIOD.


 STRESS PERIOD 416 IS TRANSIENT


 REUSING WELS FROM LAST STRESS PERIOD

 REUSING DRNS FROM LAST STRESS PERIOD

 REUSING RCHS FROM LAST STRESS PERIOD


  VOLUME BUDGET FOR ENTIRE MODEL AT END OF TIME STEP    1, STRESS PERIOD 416
  ---------------------------------------------------------------------------------------------------

     CUMULATIVE VOLUME      L**3       RATES FOR THIS TIME STEP      L**3/T          PACKAGE NAME    
     ------------------                 ------------------------                     ----------------

           IN:                                      IN:
           ---                                      ---
              STO-SS =           0.0000                STO-SS =           0.0000     STORAGE         
              STO-SY =  8648506945.7617                STO-SY =     7805928.0139     STORAGE         
                 WEL =           0.0000                   WEL =           0.0000     WEL_0           
                 DRN =           0.0000                   DRN =           0.0000     DRN_0           
                 RCH = 19398567900.3473                   RCH =    49333474.1248     RCH_0           

            TOTAL IN = 28047074846.1090              TOTAL IN =    57139402.1387

          OUT:                                     OUT:
          ----                                     ----
              STO-SS =           0.0000                STO-SS =           0.0000     STORAGE         
              STO-SY =  5215522476.5581                STO-SY =    30478282.3716     STORAGE         
                 WEL =  4406633259.2566                   WEL =    10499156.2734     WEL_0           
                 DRN = 18424911901.8490                   DRN =    16161957.9976     DRN_0           
                 RCH =           0.0000                   RCH =           0.0000     RCH_0           

           TOTAL OUT = 28047067637.6637             TOTAL OUT =    57139396.6426

            IN - OUT =        7208.4452              IN - OUT =           5.4961

 PERCENT DISCREPANCY =           0.00     PERCENT DISCREPANCY =           0.00




         TIME SUMMARY AT END OF TIME STEP    1 IN STRESS PERIOD  416
                          TIME STEP LENGTH =    1.00000    
                        STRESS PERIOD TIME =    1.00000    
                     TOTAL SIMULATION TIME =    416.000    

end timestep


start timestep kper="417" kstp="1" mode="normal"


 OUTPUT CONTROL FOR STRESS PERIOD 417 IS REPEATED USING SETTINGS FROM A PREVIOUS STRESS PERIOD.


 STRESS PERIOD 417 IS TRANSIENT


 REUSING WELS FROM LAST STRESS PERIOD

 REUSING DRNS FROM LAST STRESS PERIOD

 REUSING RCHS FROM LAST STRESS PERIOD


  VOLUME BUDGET FOR ENTIRE MODEL AT END OF TIME STEP    1, STRESS PERIOD 417
  ---------------------------------------------------------------------------------------------------

     CUMULATIVE VOLUME      L**3       RATES FOR THIS TIME STEP      L**3/T          PACKAGE NAME    
     ------------------                 ------------------------                     ----------------

           IN:                                      IN:
           ---                                      ---
              STO-SS =           0.0000                STO-SS =           0.0000     STORAGE         
              STO-SY =  8662431750.7970                STO-SY =    13924805.0353     STORAGE         
                 WEL =           0.0000                   WEL =           0.0000     WEL_0           
                 DRN =           0.0000                   DRN =           0.0000     DRN_0           
                 RCH = 19412920609.5465                   RCH =    14352709.1992     RCH_0           

            TOTAL IN = 28075352360.3435              TOTAL IN =    28277514.2345

          OUT:                                     OUT:
          ----                                     ----
              STO-SS =           0.0000                STO-SS =           0.0000     STORAGE         
              STO-SY =  5221071353.9324                STO-SY =     5548877.3743     STORAGE         
                 WEL =  4416605379.8801                   WEL =     9972120.6235     WEL_0           
                 DRN = 18437668417.5969                   DRN =    12756515.7478     DRN_0           
                 RCH =           0.0000                   RCH =           0.0000     RCH_0           

           TOTAL OUT = 28075345151.4094             TOTAL OUT =    28277513.7456

            IN - OUT =        7208.9341              IN - OUT =           0.4889

 PERCENT DISCREPANCY =           0.00     PERCENT DISCREPANCY =           0.00




         TIME SUMMARY AT END OF TIME STEP    1 IN STRESS PERIOD  417
                          TIME STEP LENGTH =    1.00000    
                        STRESS PERIOD TIME =    1.00000    
                     TOTAL SIMULATION TIME =    417.000    

end timestep


start timestep kper="418" kstp="1" mode="normal"


 OUTPUT CONTROL FOR STRESS PERIOD 418 IS REPEATED USING SETTINGS FROM A PREVIOUS STRESS PERIOD.


 STRESS PERIOD 418 IS TRANSIENT


 REUSING WELS FROM LAST STRESS PERIOD

 REUSING DRNS FROM LAST STRESS PERIOD

 REUSING RCHS FROM LAST STRESS PERIOD


  VOLUME BUDGET FOR ENTIRE MODEL AT END OF TIME STEP    1, STRESS PERIOD 418
  ---------------------------------------------------------------------------------------------------

     CUMULATIVE VOLUME      L**3       RATES FOR THIS TIME STEP      L**3/T          PACKAGE NAME    
     ------------------                 ------------------------                     ----------------

           IN:                                      IN:
           ---                                      ---
              STO-SS =           0.0000                STO-SS =           0.0000     STORAGE         
              STO-SY =  8669569782.5174                STO-SY =     7138031.7204     STORAGE         
                 WEL =           0.0000                   WEL =           0.0000     WEL_0           
                 DRN =           0.0000                   DRN =           0.0000     DRN_0           
                 RCH = 19449815070.9949                   RCH =    36894461.4484     RCH_0           

            TOTAL IN = 28119384853.5123              TOTAL IN =    44032493.1688

          OUT:                                     OUT:
          ----                                     ----
              STO-SS =           0.0000                STO-SS =           0.0000     STORAGE         
              STO-SY =  5239939337.6801                STO-SY =    18867983.7477     STORAGE         
                 WEL =  4425818241.0758                   WEL =     9212861.1956     WEL_0           
                 DRN = 18453620062.1261                   DRN =    15951644.5293     DRN_0           
                 RCH =           0.0000                   RCH =           0.0000     RCH_0           

           TOTAL OUT = 28119377640.8819             TOTAL OUT =    44032489.4726

            IN - OUT =        7212.6303              IN - OUT =           3.6962

 PERCENT DISCREPANCY =           0.00     PERCENT DISCREPANCY =           0.00




         TIME SUMMARY AT END OF TIME STEP    1 IN STRESS PERIOD  418
                          TIME STEP LENGTH =    1.00000    
                        STRESS PERIOD TIME =    1.00000    
                     TOTAL SIMULATION TIME =    418.000    

end timestep


start timestep kper="419" kstp="1" mode="normal"


 OUTPUT CONTROL FOR STRESS PERIOD 419 IS REPEATED USING SETTINGS FROM A PREVIOUS STRESS PERIOD.


 STRESS PERIOD 419 IS TRANSIENT


 REUSING WELS FROM LAST STRESS PERIOD

 REUSING DRNS FROM LAST STRESS PERIOD

 REUSING RCHS FROM LAST STRESS PERIOD


  VOLUME BUDGET FOR ENTIRE MODEL AT END OF TIME STEP    1, STRESS PERIOD 419
  ---------------------------------------------------------------------------------------------------

     CUMULATIVE VOLUME      L**3       RATES FOR THIS TIME STEP      L**3/T          PACKAGE NAME    
     ------------------                 ------------------------                     ----------------

           IN:                                      IN:
           ---                                      ---
              STO-SS =           0.0000                STO-SS =           0.0000     STORAGE         
              STO-SY =  8683736175.5535                STO-SY =    14166393.0361     STORAGE         
                 WEL =           0.0000                   WEL =           0.0000     WEL_0           
                 DRN =           0.0000                   DRN =           0.0000     DRN_0           
                 RCH = 19470026428.0593                   RCH =    20211357.0645     RCH_0           

            TOTAL IN = 28153762603.6128              TOTAL IN =    34377750.1006

          OUT:                                     OUT:
          ----                                     ----
              STO-SS =           0.0000                STO-SS =           0.0000     STORAGE         
              STO-SY =  5247799967.0286                STO-SY =     7860629.3485     STORAGE         
                 WEL =  4439158902.7577                   WEL =    13340661.6820     WEL_0           
                 DRN = 18466796521.0507                   DRN =    13176458.9246     DRN_0           
                 RCH =           0.0000                   RCH =           0.0000     RCH_0           

           TOTAL OUT = 28153755390.8370             TOTAL OUT =    34377749.9551

            IN - OUT =        7212.7758              IN - OUT =           0.1455

 PERCENT DISCREPANCY =           0.00     PERCENT DISCREPANCY =           0.00




         TIME SUMMARY AT END OF TIME STEP    1 IN STRESS PERIOD  419
                          TIME STEP LENGTH =    1.00000    
                        STRESS PERIOD TIME =    1.00000    
                     TOTAL SIMULATION TIME =    419.000    

end timestep


start timestep kper="420" kstp="1" mode="normal"


 OUTPUT CONTROL FOR STRESS PERIOD 420 IS REPEATED USING SETTINGS FROM A PREVIOUS STRESS PERIOD.


 STRESS PERIOD 420 IS TRANSIENT


 REUSING WELS FROM LAST STRESS PERIOD

 REUSING DRNS FROM LAST STRESS PERIOD

 REUSING RCHS FROM LAST STRESS PERIOD


  VOLUME BUDGET FOR ENTIRE MODEL AT END OF TIME STEP    1, STRESS PERIOD 420
  ---------------------------------------------------------------------------------------------------

     CUMULATIVE VOLUME      L**3       RATES FOR THIS TIME STEP      L**3/T          PACKAGE NAME    
     ------------------                 ------------------------                     ----------------

           IN:                                      IN:
           ---                                      ---
              STO-SS =           0.0000                STO-SS =           0.0000     STORAGE         
              STO-SY =  8707445235.0157                STO-SY =    23709059.4622     STORAGE         
                 WEL =           0.0000                   WEL =           0.0000     WEL_0           
                 DRN =           0.0000                   DRN =           0.0000     DRN_0           
                 RCH = 19497058754.4550                   RCH =    27032326.3956     RCH_0           

            TOTAL IN = 28204503989.4706              TOTAL IN =    50741385.8578

          OUT:                                     OUT:
          ----                                     ----
              STO-SS =           0.0000                STO-SS =           0.0000     STORAGE         
              STO-SY =  5256631757.5503                STO-SY =     8831790.5217     STORAGE         
                 WEL =  4466026031.4813                   WEL =    26867128.7235     WEL_0           
                 DRN = 18481838987.8488                   DRN =    15042466.7981     DRN_0           
                 RCH =           0.0000                   RCH =           0.0000     RCH_0           

           TOTAL OUT = 28204496776.8803             TOTAL OUT =    50741386.0433

            IN - OUT =        7212.5903              IN - OUT =          -0.1855

 PERCENT DISCREPANCY =           0.00     PERCENT DISCREPANCY =          -0.00




         TIME SUMMARY AT END OF TIME STEP    1 IN STRESS PERIOD  420
                          TIME STEP LENGTH =    1.00000    
                        STRESS PERIOD TIME =    1.00000    
                     TOTAL SIMULATION TIME =    420.000    

end timestep


start timestep kper="421" kstp="1" mode="normal"


 OUTPUT CONTROL FOR STRESS PERIOD 421 IS REPEATED USING SETTINGS FROM A PREVIOUS STRESS PERIOD.


 STRESS PERIOD 421 IS TRANSIENT


 REUSING WELS FROM LAST STRESS PERIOD

 REUSING DRNS FROM LAST STRESS PERIOD

 REUSING RCHS FROM LAST STRESS PERIOD


  VOLUME BUDGET FOR ENTIRE MODEL AT END OF TIME STEP    1, STRESS PERIOD 421
  ---------------------------------------------------------------------------------------------------

     CUMULATIVE VOLUME      L**3       RATES FOR THIS TIME STEP      L**3/T          PACKAGE NAME    
     ------------------                 ------------------------                     ----------------

           IN:                                      IN:
           ---                                      ---
              STO-SS =           0.0000                STO-SS =           0.0000     STORAGE         
              STO-SY =  8718652727.9523                STO-SY =    11207492.9366     STORAGE         
                 WEL =           0.0000                   WEL =           0.0000     WEL_0           
                 DRN =           0.0000                   DRN =           0.0000     DRN_0           
                 RCH = 19518700432.8814                   RCH =    21641678.4265     RCH_0           

            TOTAL IN = 28237353160.8337              TOTAL IN =    32849171.3631

          OUT:                                     OUT:
          ----                                     ----
              STO-SS =           0.0000                STO-SS =           0.0000     STORAGE         
              STO-SY =  5265549148.8004                STO-SY =     8917391.2502     STORAGE         
                 WEL =  4475996799.8960                   WEL =     9970768.4147     WEL_0           
                 DRN = 18495799999.4281                   DRN =    13961011.5794     DRN_0           
                 RCH =           0.0000                   RCH =           0.0000     RCH_0           

           TOTAL OUT = 28237345948.1246             TOTAL OUT =    32849171.2443

            IN - OUT =        7212.7092              IN - OUT =           0.1188

 PERCENT DISCREPANCY =           0.00     PERCENT DISCREPANCY =           0.00




         TIME SUMMARY AT END OF TIME STEP    1 IN STRESS PERIOD  421
                          TIME STEP LENGTH =    1.00000    
                        STRESS PERIOD TIME =    1.00000    
                     TOTAL SIMULATION TIME =    421.000    

end timestep


start timestep kper="422" kstp="1" mode="normal"


 OUTPUT CONTROL FOR STRESS PERIOD 422 IS REPEATED USING SETTINGS FROM A PREVIOUS STRESS PERIOD.


 STRESS PERIOD 422 IS TRANSIENT


 REUSING WELS FROM LAST STRESS PERIOD

 REUSING DRNS FROM LAST STRESS PERIOD

 REUSING RCHS FROM LAST STRESS PERIOD


  VOLUME BUDGET FOR ENTIRE MODEL AT END OF TIME STEP    1, STRESS PERIOD 422
  ---------------------------------------------------------------------------------------------------

     CUMULATIVE VOLUME      L**3       RATES FOR THIS TIME STEP      L**3/T          PACKAGE NAME    
     ------------------                 ------------------------                     ----------------

           IN:                                      IN:
           ---                                      ---
              STO-SS =           0.0000                STO-SS =           0.0000     STORAGE         
              STO-SY =  8722140532.6516                STO-SY =     3487804.6993     STORAGE         
                 WEL =           0.0000                   WEL =           0.0000     WEL_0           
                 DRN =           0.0000                   DRN =           0.0000     DRN_0           
                 RCH = 19580749793.4920                   RCH =    62049360.6106     RCH_0           

            TOTAL IN = 28302890326.1436              TOTAL IN =    65537165.3099

          OUT:                                     OUT:
          ----                                     ----
              STO-SS =           0.0000                STO-SS =           0.0000     STORAGE         
              STO-SY =  5305202490.0529                STO-SY =    39653341.2525     STORAGE         
                 WEL =  4483009665.8138                   WEL =     7012865.9178     WEL_0           
                 DRN = 18514670955.5821                   DRN =    18870956.1540     DRN_0           
                 RCH =           0.0000                   RCH =           0.0000     RCH_0           

           TOTAL OUT = 28302883111.4488             TOTAL OUT =    65537163.3243

            IN - OUT =        7214.6948              IN - OUT =           1.9857

 PERCENT DISCREPANCY =           0.00     PERCENT DISCREPANCY =           0.00




         TIME SUMMARY AT END OF TIME STEP    1 IN STRESS PERIOD  422
                          TIME STEP LENGTH =    1.00000    
                        STRESS PERIOD TIME =    1.00000    
                     TOTAL SIMULATION TIME =    422.000    

end timestep


start timestep kper="423" kstp="1" mode="normal"


 OUTPUT CONTROL FOR STRESS PERIOD 423 IS REPEATED USING SETTINGS FROM A PREVIOUS STRESS PERIOD.


 STRESS PERIOD 423 IS TRANSIENT


 REUSING WELS FROM LAST STRESS PERIOD

 REUSING DRNS FROM LAST STRESS PERIOD

 REUSING RCHS FROM LAST STRESS PERIOD


  VOLUME BUDGET FOR ENTIRE MODEL AT END OF TIME STEP    1, STRESS PERIOD 423
  ---------------------------------------------------------------------------------------------------

     CUMULATIVE VOLUME      L**3       RATES FOR THIS TIME STEP      L**3/T          PACKAGE NAME    
     ------------------                 ------------------------                     ----------------

           IN:                                      IN:
           ---                                      ---
              STO-SS =           0.0000                STO-SS =           0.0000     STORAGE         
              STO-SY =  8732894570.9429                STO-SY =    10754038.2913     STORAGE         
                 WEL =           0.0000                   WEL =           0.0000     WEL_0           
                 DRN =           0.0000                   DRN =           0.0000     DRN_0           
                 RCH = 19607181725.8510                   RCH =    26431932.3590     RCH_0           

            TOTAL IN = 28340076296.7939              TOTAL IN =    37185970.6503

          OUT:                                     OUT:
          ----                                     ----
              STO-SS =           0.0000                STO-SS =           0.0000     STORAGE         
              STO-SY =  5317705701.1308                STO-SY =    12503211.0778     STORAGE         
                 WEL =  4492965157.9192                   WEL =     9955492.1054     WEL_0           
                 DRN = 18529398232.4640                   DRN =    14727276.8819     DRN_0           
                 RCH =           0.0000                   RCH =           0.0000     RCH_0           

           TOTAL OUT = 28340069091.5140             TOTAL OUT =    37185980.0651

            IN - OUT =        7205.2800              IN - OUT =          -9.4149

 PERCENT DISCREPANCY =           0.00     PERCENT DISCREPANCY =          -0.00




         TIME SUMMARY AT END OF TIME STEP    1 IN STRESS PERIOD  423
                          TIME STEP LENGTH =    1.00000    
                        STRESS PERIOD TIME =    1.00000    
                     TOTAL SIMULATION TIME =    423.000    

end timestep


start timestep kper="424" kstp="1" mode="normal"


 OUTPUT CONTROL FOR STRESS PERIOD 424 IS REPEATED USING SETTINGS FROM A PREVIOUS STRESS PERIOD.


 STRESS PERIOD 424 IS TRANSIENT


 REUSING WELS FROM LAST STRESS PERIOD

 REUSING DRNS FROM LAST STRESS PERIOD

 REUSING RCHS FROM LAST STRESS PERIOD


  VOLUME BUDGET FOR ENTIRE MODEL AT END OF TIME STEP    1, STRESS PERIOD 424
  ---------------------------------------------------------------------------------------------------

     CUMULATIVE VOLUME      L**3       RATES FOR THIS TIME STEP      L**3/T          PACKAGE NAME    
     ------------------                 ------------------------                     ----------------

           IN:                                      IN:
           ---                                      ---
              STO-SS =           0.0000                STO-SS =           0.0000     STORAGE         
              STO-SY =  8743427019.8800                STO-SY =    10532448.9371     STORAGE         
                 WEL =           0.0000                   WEL =           0.0000     WEL_0           
                 DRN =           0.0000                   DRN =           0.0000     DRN_0           
                 RCH = 19640053756.8615                   RCH =    32872031.0105     RCH_0           

            TOTAL IN = 28383480776.7415              TOTAL IN =    43404479.9476

          OUT:                                     OUT:
          ----                                     ----
              STO-SS =           0.0000                STO-SS =           0.0000     STORAGE         
              STO-SY =  5332435136.8381                STO-SY =    14729435.7073     STORAGE         
                 WEL =  4504952048.8796                   WEL =    11986890.9604     WEL_0           
                 DRN = 18546086361.4791                   DRN =    16688129.0151     DRN_0           
                 RCH =           0.0000                   RCH =           0.0000     RCH_0           

           TOTAL OUT = 28383473547.1968             TOTAL OUT =    43404455.6828

            IN - OUT =        7229.5447              IN - OUT =          24.2648

 PERCENT DISCREPANCY =           0.00     PERCENT DISCREPANCY =           0.00




         TIME SUMMARY AT END OF TIME STEP    1 IN STRESS PERIOD  424
                          TIME STEP LENGTH =    1.00000    
                        STRESS PERIOD TIME =    1.00000    
                     TOTAL SIMULATION TIME =    424.000    

end timestep


start timestep kper="425" kstp="1" mode="normal"


 OUTPUT CONTROL FOR STRESS PERIOD 425 IS REPEATED USING SETTINGS FROM A PREVIOUS STRESS PERIOD.


 STRESS PERIOD 425 IS TRANSIENT


 REUSING WELS FROM LAST STRESS PERIOD

 REUSING DRNS FROM LAST STRESS PERIOD

 REUSING RCHS FROM LAST STRESS PERIOD


  VOLUME BUDGET FOR ENTIRE MODEL AT END OF TIME STEP    1, STRESS PERIOD 425
  ---------------------------------------------------------------------------------------------------

     CUMULATIVE VOLUME      L**3       RATES FOR THIS TIME STEP      L**3/T          PACKAGE NAME    
     ------------------                 ------------------------                     ----------------

           IN:                                      IN:
           ---                                      ---
              STO-SS =           0.0000                STO-SS =           0.0000     STORAGE         
              STO-SY =  8751073092.7121                STO-SY =     7646072.8320     STORAGE         
                 WEL =           0.0000                   WEL =           0.0000     WEL_0           
                 DRN =           0.0000                   DRN =           0.0000     DRN_0           
                 RCH = 19677061055.8476                   RCH =    37007298.9862     RCH_0           

            TOTAL IN = 28428134148.5597              TOTAL IN =    44653371.8182

          OUT:                                     OUT:
          ----                                     ----
              STO-SS =           0.0000                STO-SS =           0.0000     STORAGE         
              STO-SY =  5351563194.7775                STO-SY =    19128057.9394     STORAGE         
                 WEL =  4514281078.9380                   WEL =     9329030.0584     WEL_0           
                 DRN = 18562282645.1899                   DRN =    16196283.7108     DRN_0           
                 RCH =           0.0000                   RCH =           0.0000     RCH_0           

           TOTAL OUT = 28428126918.9054             TOTAL OUT =    44653371.7086

            IN - OUT =        7229.6543              IN - OUT =           0.1096

 PERCENT DISCREPANCY =           0.00     PERCENT DISCREPANCY =           0.00




         TIME SUMMARY AT END OF TIME STEP    1 IN STRESS PERIOD  425
                          TIME STEP LENGTH =    1.00000    
                        STRESS PERIOD TIME =    1.00000    
                     TOTAL SIMULATION TIME =    425.000    

end timestep


start timestep kper="426" kstp="1" mode="normal"


 OUTPUT CONTROL FOR STRESS PERIOD 426 IS REPEATED USING SETTINGS FROM A PREVIOUS STRESS PERIOD.


 STRESS PERIOD 426 IS TRANSIENT


 REUSING WELS FROM LAST STRESS PERIOD

 REUSING DRNS FROM LAST STRESS PERIOD

 REUSING RCHS FROM LAST STRESS PERIOD


  VOLUME BUDGET FOR ENTIRE MODEL AT END OF TIME STEP    1, STRESS PERIOD 426
  ---------------------------------------------------------------------------------------------------

     CUMULATIVE VOLUME      L**3       RATES FOR THIS TIME STEP      L**3/T          PACKAGE NAME    
     ------------------                 ------------------------                     ----------------

           IN:                                      IN:
           ---                                      ---
              STO-SS =           0.0000                STO-SS =           0.0000     STORAGE         
              STO-SY =  8758606784.9910                STO-SY =     7533692.2790     STORAGE         
                 WEL =           0.0000                   WEL =           0.0000     WEL_0           
                 DRN =           0.0000                   DRN =           0.0000     DRN_0           
                 RCH = 19762550323.9230                   RCH =    85489268.0754     RCH_0           

            TOTAL IN = 28521157108.9141              TOTAL IN =    93022960.3544

          OUT:                                     OUT:
          ----                                     ----
              STO-SS =           0.0000                STO-SS =           0.0000     STORAGE         
              STO-SY =  5410959310.6864                STO-SY =    59396115.9090     STORAGE         
                 WEL =  4523827551.8017                   WEL =     9546472.8636     WEL_0           
                 DRN = 18586363016.2431                   DRN =    24080371.0532     DRN_0           
                 RCH =           0.0000                   RCH =           0.0000     RCH_0           

           TOTAL OUT = 28521149878.7312             TOTAL OUT =    93022959.8258

            IN - OUT =        7230.1828              IN - OUT =           0.5286

 PERCENT DISCREPANCY =           0.00     PERCENT DISCREPANCY =           0.00




         TIME SUMMARY AT END OF TIME STEP    1 IN STRESS PERIOD  426
                          TIME STEP LENGTH =    1.00000    
                        STRESS PERIOD TIME =    1.00000    
                     TOTAL SIMULATION TIME =    426.000    

end timestep


start timestep kper="427" kstp="1" mode="normal"


 OUTPUT CONTROL FOR STRESS PERIOD 427 IS REPEATED USING SETTINGS FROM A PREVIOUS STRESS PERIOD.


 STRESS PERIOD 427 IS TRANSIENT


 REUSING WELS FROM LAST STRESS PERIOD

 REUSING DRNS FROM LAST STRESS PERIOD

 REUSING RCHS FROM LAST STRESS PERIOD


  VOLUME BUDGET FOR ENTIRE MODEL AT END OF TIME STEP    1, STRESS PERIOD 427
  ---------------------------------------------------------------------------------------------------

     CUMULATIVE VOLUME      L**3       RATES FOR THIS TIME STEP      L**3/T          PACKAGE NAME    
     ------------------                 ------------------------                     ----------------

           IN:                                      IN:
           ---                                      ---
              STO-SS =           0.0000                STO-SS =           0.0000     STORAGE         
              STO-SY =  8759623542.4248                STO-SY =     1016757.4338     STORAGE         
                 WEL =           0.0000                   WEL =           0.0000     WEL_0           
                 DRN =           0.0000                   DRN =           0.0000     DRN_0           
                 RCH = 20236338305.0073                   RCH =   473787981.0843     RCH_0           

            TOTAL IN = 28995961847.4321              TOTAL IN =   474804738.5181

          OUT:                                     OUT:
          ----                                     ----
              STO-SS =           0.0000                STO-SS =           0.0000     STORAGE         
              STO-SY =  5790361836.8872                STO-SY =   379402526.2007     STORAGE         
                 WEL =  4529554809.0633                   WEL =     5727257.2617     WEL_0           
                 DRN = 18676037971.5295                   DRN =    89674955.2864     DRN_0           
                 RCH =           0.0000                   RCH =           0.0000     RCH_0           

           TOTAL OUT = 28995954617.4800             TOTAL OUT =   474804738.7488

            IN - OUT =        7229.9521              IN - OUT =          -0.2307

 PERCENT DISCREPANCY =           0.00     PERCENT DISCREPANCY =          -0.00




         TIME SUMMARY AT END OF TIME STEP    1 IN STRESS PERIOD  427
                          TIME STEP LENGTH =    1.00000    
                        STRESS PERIOD TIME =    1.00000    
                     TOTAL SIMULATION TIME =    427.000    

end timestep


start timestep kper="428" kstp="1" mode="normal"


 OUTPUT CONTROL FOR STRESS PERIOD 428 IS REPEATED USING SETTINGS FROM A PREVIOUS STRESS PERIOD.


 STRESS PERIOD 428 IS TRANSIENT


 REUSING WELS FROM LAST STRESS PERIOD

 REUSING DRNS FROM LAST STRESS PERIOD

 REUSING RCHS FROM LAST STRESS PERIOD


  VOLUME BUDGET FOR ENTIRE MODEL AT END OF TIME STEP    1, STRESS PERIOD 428
  ---------------------------------------------------------------------------------------------------

     CUMULATIVE VOLUME      L**3       RATES FOR THIS TIME STEP      L**3/T          PACKAGE NAME    
     ------------------                 ------------------------                     ----------------

           IN:                                      IN:
           ---                                      ---
              STO-SS =           0.0000                STO-SS =           0.0000     STORAGE         
              STO-SY =  8775536201.3689                STO-SY =    15912658.9441     STORAGE         
                 WEL =           0.0000                   WEL =           0.0000     WEL_0           
                 DRN =           0.0000                   DRN =           0.0000     DRN_0           
                 RCH = 20287304122.8872                   RCH =    50965817.8799     RCH_0           

            TOTAL IN = 29062840324.2561              TOTAL IN =    66878476.8240

          OUT:                                     OUT:
          ----                                     ----
              STO-SS =           0.0000                STO-SS =           0.0000     STORAGE         
              STO-SY =  5814788322.2821                STO-SY =    24426485.3949     STORAGE         
                 WEL =  4547623467.3836                   WEL =    18068658.3203     WEL_0           
                 DRN = 18700421301.2306                   DRN =    24383329.7010     DRN_0           
                 RCH =           0.0000                   RCH =           0.0000     RCH_0           

           TOTAL OUT = 29062833090.8963             TOTAL OUT =    66878473.4162

            IN - OUT =        7233.3599              IN - OUT =           3.4078

 PERCENT DISCREPANCY =           0.00     PERCENT DISCREPANCY =           0.00




         TIME SUMMARY AT END OF TIME STEP    1 IN STRESS PERIOD  428
                          TIME STEP LENGTH =    1.00000    
                        STRESS PERIOD TIME =    1.00000    
                     TOTAL SIMULATION TIME =    428.000    

end timestep


start timestep kper="429" kstp="1" mode="normal"


 OUTPUT CONTROL FOR STRESS PERIOD 429 IS REPEATED USING SETTINGS FROM A PREVIOUS STRESS PERIOD.


 STRESS PERIOD 429 IS TRANSIENT


 REUSING WELS FROM LAST STRESS PERIOD

 REUSING DRNS FROM LAST STRESS PERIOD

 REUSING RCHS FROM LAST STRESS PERIOD


  VOLUME BUDGET FOR ENTIRE MODEL AT END OF TIME STEP    1, STRESS PERIOD 429
  ---------------------------------------------------------------------------------------------------

     CUMULATIVE VOLUME      L**3       RATES FOR THIS TIME STEP      L**3/T          PACKAGE NAME    
     ------------------                 ------------------------                     ----------------

           IN:                                      IN:
           ---                                      ---
              STO-SS =           0.0000                STO-SS =           0.0000     STORAGE         
              STO-SY =  8780006631.1857                STO-SY =     4470429.8168     STORAGE         
                 WEL =           0.0000                   WEL =           0.0000     WEL_0           
                 DRN =           0.0000                   DRN =           0.0000     DRN_0           
                 RCH = 20345762370.6725                   RCH =    58458247.7852     RCH_0           

            TOTAL IN = 29125769001.8582              TOTAL IN =    62928677.6021

          OUT:                                     OUT:
          ----                                     ----
              STO-SS =           0.0000                STO-SS =           0.0000     STORAGE         
              STO-SY =  5843230478.4348                STO-SY =    28442156.1527     STORAGE         
                 WEL =  4555379051.5725                   WEL =     7755584.1889     WEL_0           
                 DRN = 18727152238.3420                   DRN =    26730937.1115     DRN_0           
                 RCH =           0.0000                   RCH =           0.0000     RCH_0           

           TOTAL OUT = 29125761768.3494             TOTAL OUT =    62928677.4531

            IN - OUT =        7233.5088              IN - OUT =           0.1490

 PERCENT DISCREPANCY =           0.00     PERCENT DISCREPANCY =           0.00




         TIME SUMMARY AT END OF TIME STEP    1 IN STRESS PERIOD  429
                          TIME STEP LENGTH =    1.00000    
                        STRESS PERIOD TIME =    1.00000    
                     TOTAL SIMULATION TIME =    429.000    

end timestep


start timestep kper="430" kstp="1" mode="normal"


 OUTPUT CONTROL FOR STRESS PERIOD 430 IS REPEATED USING SETTINGS FROM A PREVIOUS STRESS PERIOD.


 STRESS PERIOD 430 IS TRANSIENT


 REUSING WELS FROM LAST STRESS PERIOD

 REUSING DRNS FROM LAST STRESS PERIOD

 REUSING RCHS FROM LAST STRESS PERIOD


  VOLUME BUDGET FOR ENTIRE MODEL AT END OF TIME STEP    1, STRESS PERIOD 430
  ---------------------------------------------------------------------------------------------------

     CUMULATIVE VOLUME      L**3       RATES FOR THIS TIME STEP      L**3/T          PACKAGE NAME    
     ------------------                 ------------------------                     ----------------

           IN:                                      IN:
           ---                                      ---
              STO-SS =           0.0000                STO-SS =           0.0000     STORAGE         
              STO-SY =  8789287966.0853                STO-SY =     9281334.8996     STORAGE         
                 WEL =           0.0000                   WEL =           0.0000     WEL_0           
                 DRN =           0.0000                   DRN =           0.0000     DRN_0           
                 RCH = 20411119265.3391                   RCH =    65356894.6666     RCH_0           

            TOTAL IN = 29200407231.4244              TOTAL IN =    74638229.5662

          OUT:                                     OUT:
          ----                                     ----
              STO-SS =           0.0000                STO-SS =           0.0000     STORAGE         
              STO-SY =  5878929097.5656                STO-SY =    35698619.1308     STORAGE         
                 WEL =  4567549837.4164                   WEL =    12170785.8439     WEL_0           
                 DRN = 18753921062.4719                   DRN =    26768824.1299     DRN_0           
                 RCH =           0.0000                   RCH =           0.0000     RCH_0           

           TOTAL OUT = 29200399997.4540             TOTAL OUT =    74638229.1046

            IN - OUT =        7233.9704              IN - OUT =           0.4616

 PERCENT DISCREPANCY =           0.00     PERCENT DISCREPANCY =           0.00




         TIME SUMMARY AT END OF TIME STEP    1 IN STRESS PERIOD  430
                          TIME STEP LENGTH =    1.00000    
                        STRESS PERIOD TIME =    1.00000    
                     TOTAL SIMULATION TIME =    430.000    

end timestep


start timestep kper="431" kstp="1" mode="normal"


 OUTPUT CONTROL FOR STRESS PERIOD 431 IS REPEATED USING SETTINGS FROM A PREVIOUS STRESS PERIOD.


 STRESS PERIOD 431 IS TRANSIENT


 REUSING WELS FROM LAST STRESS PERIOD

 REUSING DRNS FROM LAST STRESS PERIOD

 REUSING RCHS FROM LAST STRESS PERIOD


  VOLUME BUDGET FOR ENTIRE MODEL AT END OF TIME STEP    1, STRESS PERIOD 431
  ---------------------------------------------------------------------------------------------------

     CUMULATIVE VOLUME      L**3       RATES FOR THIS TIME STEP      L**3/T          PACKAGE NAME    
     ------------------                 ------------------------                     ----------------

           IN:                                      IN:
           ---                                      ---
              STO-SS =           0.0000                STO-SS =           0.0000     STORAGE         
              STO-SY =  8795979844.3095                STO-SY =     6691878.2242     STORAGE         
                 WEL =           0.0000                   WEL =           0.0000     WEL_0           
                 DRN =           0.0000                   DRN =           0.0000     DRN_0           
                 RCH = 20459785603.2555                   RCH =    48666337.9164     RCH_0           

            TOTAL IN = 29255765447.5650              TOTAL IN =    55358216.1406

          OUT:                                     OUT:
          ----                                     ----
              STO-SS =           0.0000                STO-SS =           0.0000     STORAGE         
              STO-SY =  5900022709.7487                STO-SY =    21093612.1831     STORAGE         
                 WEL =  4576155953.4268                   WEL =     8606116.0103     WEL_0           
                 DRN = 18779579557.5237                   DRN =    25658495.0518     DRN_0           
                 RCH =           0.0000                   RCH =           0.0000     RCH_0           

           TOTAL OUT = 29255758220.6992             TOTAL OUT =    55358223.2452

            IN - OUT =        7226.8659              IN - OUT =          -7.1046

 PERCENT DISCREPANCY =           0.00     PERCENT DISCREPANCY =          -0.00




         TIME SUMMARY AT END OF TIME STEP    1 IN STRESS PERIOD  431
                          TIME STEP LENGTH =    1.00000    
                        STRESS PERIOD TIME =    1.00000    
                     TOTAL SIMULATION TIME =    431.000    

end timestep


start timestep kper="432" kstp="1" mode="normal"


 OUTPUT CONTROL FOR STRESS PERIOD 432 IS REPEATED USING SETTINGS FROM A PREVIOUS STRESS PERIOD.


 STRESS PERIOD 432 IS TRANSIENT


 REUSING WELS FROM LAST STRESS PERIOD

 REUSING DRNS FROM LAST STRESS PERIOD

 REUSING RCHS FROM LAST STRESS PERIOD


  VOLUME BUDGET FOR ENTIRE MODEL AT END OF TIME STEP    1, STRESS PERIOD 432
  ---------------------------------------------------------------------------------------------------

     CUMULATIVE VOLUME      L**3       RATES FOR THIS TIME STEP      L**3/T          PACKAGE NAME    
     ------------------                 ------------------------                     ----------------

           IN:                                      IN:
           ---                                      ---
              STO-SS =           0.0000                STO-SS =           0.0000     STORAGE         
              STO-SY =  8807585958.1228                STO-SY =    11606113.8133     STORAGE         
                 WEL =           0.0000                   WEL =           0.0000     WEL_0           
                 DRN =           0.0000                   DRN =           0.0000     DRN_0           
                 RCH = 20496949682.6585                   RCH =    37164079.4030     RCH_0           

            TOTAL IN = 29304535640.7813              TOTAL IN =    48770193.2163

          OUT:                                     OUT:
          ----                                     ----
              STO-SS =           0.0000                STO-SS =           0.0000     STORAGE         
              STO-SY =  5914297505.9451                STO-SY =    14274796.1964     STORAGE         
                 WEL =  4586752224.2058                   WEL =    10596270.7790     WEL_0           
                 DRN = 18803478679.2544                   DRN =    23899121.7307     DRN_0           
                 RCH =           0.0000                   RCH =           0.0000     RCH_0           

           TOTAL OUT = 29304528409.4053             TOTAL OUT =    48770188.7061

            IN - OUT =        7231.3760              IN - OUT =           4.5101

 PERCENT DISCREPANCY =           0.00     PERCENT DISCREPANCY =           0.00




         TIME SUMMARY AT END OF TIME STEP    1 IN STRESS PERIOD  432
                          TIME STEP LENGTH =    1.00000    
                        STRESS PERIOD TIME =    1.00000    
                     TOTAL SIMULATION TIME =    432.000    

end timestep


start timestep kper="433" kstp="1" mode="normal"


 OUTPUT CONTROL FOR STRESS PERIOD 433 IS REPEATED USING SETTINGS FROM A PREVIOUS STRESS PERIOD.


 STRESS PERIOD 433 IS TRANSIENT


 REUSING WELS FROM LAST STRESS PERIOD

 REUSING DRNS FROM LAST STRESS PERIOD

 REUSING RCHS FROM LAST STRESS PERIOD


  VOLUME BUDGET FOR ENTIRE MODEL AT END OF TIME STEP    1, STRESS PERIOD 433
  ---------------------------------------------------------------------------------------------------

     CUMULATIVE VOLUME      L**3       RATES FOR THIS TIME STEP      L**3/T          PACKAGE NAME    
     ------------------                 ------------------------                     ----------------

           IN:                                      IN:
           ---                                      ---
              STO-SS =           0.0000                STO-SS =           0.0000     STORAGE         
              STO-SY =  8815526830.7343                STO-SY =     7940872.6115     STORAGE         
                 WEL =           0.0000                   WEL =           0.0000     WEL_0           
                 DRN =           0.0000                   DRN =           0.0000     DRN_0           
                 RCH = 20550099838.0744                   RCH =    53150155.4159     RCH_0           

            TOTAL IN = 29365626668.8087              TOTAL IN =    61091028.0274

          OUT:                                     OUT:
          ----                                     ----
              STO-SS =           0.0000                STO-SS =           0.0000     STORAGE         
              STO-SY =  5937019228.6875                STO-SY =    22721722.7424     STORAGE         
                 WEL =  4596976866.4267                   WEL =    10224642.2209     WEL_0           
                 DRN = 18831623376.4970                   DRN =    28144697.2426     DRN_0           
                 RCH =           0.0000                   RCH =           0.0000     RCH_0           

           TOTAL OUT = 29365619471.6112             TOTAL OUT =    61091062.2059

            IN - OUT =        7197.1975              IN - OUT =         -34.1785

 PERCENT DISCREPANCY =           0.00     PERCENT DISCREPANCY =          -0.00




         TIME SUMMARY AT END OF TIME STEP    1 IN STRESS PERIOD  433
                          TIME STEP LENGTH =    1.00000    
                        STRESS PERIOD TIME =    1.00000    
                     TOTAL SIMULATION TIME =    433.000    

end timestep


start timestep kper="434" kstp="1" mode="normal"


 OUTPUT CONTROL FOR STRESS PERIOD 434 IS REPEATED USING SETTINGS FROM A PREVIOUS STRESS PERIOD.


 STRESS PERIOD 434 IS TRANSIENT


 REUSING WELS FROM LAST STRESS PERIOD

 REUSING DRNS FROM LAST STRESS PERIOD

 REUSING RCHS FROM LAST STRESS PERIOD


  VOLUME BUDGET FOR ENTIRE MODEL AT END OF TIME STEP    1, STRESS PERIOD 434
  ---------------------------------------------------------------------------------------------------

     CUMULATIVE VOLUME      L**3       RATES FOR THIS TIME STEP      L**3/T          PACKAGE NAME    
     ------------------                 ------------------------                     ----------------

           IN:                                      IN:
           ---                                      ---
              STO-SS =           0.0000                STO-SS =           0.0000     STORAGE         
              STO-SY =  8834480398.7670                STO-SY =    18953568.0326     STORAGE         
                 WEL =           0.0000                   WEL =           0.0000     WEL_0           
                 DRN =           0.0000                   DRN =           0.0000     DRN_0           
                 RCH = 20616310707.3347                   RCH =    66210869.2603     RCH_0           

            TOTAL IN = 29450791106.1016              TOTAL IN =    85164437.2929

          OUT:                                     OUT:
          ----                                     ----
              STO-SS =           0.0000                STO-SS =           0.0000     STORAGE         
              STO-SY =  5965555425.6515                STO-SY =    28536196.9639     STORAGE         
                 WEL =  4626031468.7550                   WEL =    29054602.3283     WEL_0           
                 DRN = 18859197014.4173                   DRN =    27573637.9203     DRN_0           
                 RCH =           0.0000                   RCH =           0.0000     RCH_0           

           TOTAL OUT = 29450783908.8238             TOTAL OUT =    85164437.2126

            IN - OUT =        7197.2778              IN - OUT =       8.0357E-02

 PERCENT DISCREPANCY =           0.00     PERCENT DISCREPANCY =           0.00




         TIME SUMMARY AT END OF TIME STEP    1 IN STRESS PERIOD  434
                          TIME STEP LENGTH =    1.00000    
                        STRESS PERIOD TIME =    1.00000    
                     TOTAL SIMULATION TIME =    434.000    

end timestep


start timestep kper="435" kstp="1" mode="normal"


 OUTPUT CONTROL FOR STRESS PERIOD 435 IS REPEATED USING SETTINGS FROM A PREVIOUS STRESS PERIOD.


 STRESS PERIOD 435 IS TRANSIENT


 REUSING WELS FROM LAST STRESS PERIOD

 REUSING DRNS FROM LAST STRESS PERIOD

 REUSING RCHS FROM LAST STRESS PERIOD


  VOLUME BUDGET FOR ENTIRE MODEL AT END OF TIME STEP    1, STRESS PERIOD 435
  ---------------------------------------------------------------------------------------------------

     CUMULATIVE VOLUME      L**3       RATES FOR THIS TIME STEP      L**3/T          PACKAGE NAME    
     ------------------                 ------------------------                     ----------------

           IN:                                      IN:
           ---                                      ---
              STO-SS =           0.0000                STO-SS =           0.0000     STORAGE         
              STO-SY =  8848523806.4599                STO-SY =    14043407.6929     STORAGE         
                 WEL =           0.0000                   WEL =           0.0000     WEL_0           
                 DRN =           0.0000                   DRN =           0.0000     DRN_0           
                 RCH = 20688213249.7057                   RCH =    71902542.3711     RCH_0           

            TOTAL IN = 29536737056.1656              TOTAL IN =    85945950.0640

          OUT:                                     OUT:
          ----                                     ----
              STO-SS =           0.0000                STO-SS =           0.0000     STORAGE         
              STO-SY =  5994829173.1141                STO-SY =    29273747.4626     STORAGE         
                 WEL =  4654036252.5723                   WEL =    28004783.8173     WEL_0           
                 DRN = 18887864433.0546                   DRN =    28667418.6374     DRN_0           
                 RCH =           0.0000                   RCH =           0.0000     RCH_0           

           TOTAL OUT = 29536729858.7410             TOTAL OUT =    85945949.9173

            IN - OUT =        7197.4245              IN - OUT =           0.1467

 PERCENT DISCREPANCY =           0.00     PERCENT DISCREPANCY =           0.00




         TIME SUMMARY AT END OF TIME STEP    1 IN STRESS PERIOD  435
                          TIME STEP LENGTH =    1.00000    
                        STRESS PERIOD TIME =    1.00000    
                     TOTAL SIMULATION TIME =    435.000    

end timestep


start timestep kper="436" kstp="1" mode="normal"


 OUTPUT CONTROL FOR STRESS PERIOD 436 IS REPEATED USING SETTINGS FROM A PREVIOUS STRESS PERIOD.


 STRESS PERIOD 436 IS TRANSIENT


 REUSING WELS FROM LAST STRESS PERIOD

 REUSING DRNS FROM LAST STRESS PERIOD

 REUSING RCHS FROM LAST STRESS PERIOD


  VOLUME BUDGET FOR ENTIRE MODEL AT END OF TIME STEP    1, STRESS PERIOD 436
  ---------------------------------------------------------------------------------------------------

     CUMULATIVE VOLUME      L**3       RATES FOR THIS TIME STEP      L**3/T          PACKAGE NAME    
     ------------------                 ------------------------                     ----------------

           IN:                                      IN:
           ---                                      ---
              STO-SS =           0.0000                STO-SS =           0.0000     STORAGE         
              STO-SY =  8857668136.8919                STO-SY =     9144330.4321     STORAGE         
                 WEL =           0.0000                   WEL =           0.0000     WEL_0           
                 DRN =           0.0000                   DRN =           0.0000     DRN_0           
                 RCH = 20766683182.0192                   RCH =    78469932.3135     RCH_0           

            TOTAL IN = 29624351318.9111              TOTAL IN =    87614262.7455

          OUT:                                     OUT:
          ----                                     ----
              STO-SS =           0.0000                STO-SS =           0.0000     STORAGE         
              STO-SY =  6035747671.7391                STO-SY =    40918498.6250     STORAGE         
                 WEL =  4668599006.0695                   WEL =    14562753.4972     WEL_0           
                 DRN = 18919997443.1815                   DRN =    32133010.1268     DRN_0           
                 RCH =           0.0000                   RCH =           0.0000     RCH_0           

           TOTAL OUT = 29624344120.9901             TOTAL OUT =    87614262.2491

            IN - OUT =        7197.9210              IN - OUT =           0.4964

 PERCENT DISCREPANCY =           0.00     PERCENT DISCREPANCY =           0.00




         TIME SUMMARY AT END OF TIME STEP    1 IN STRESS PERIOD  436
                          TIME STEP LENGTH =    1.00000    
                        STRESS PERIOD TIME =    1.00000    
                     TOTAL SIMULATION TIME =    436.000    

end timestep


start timestep kper="437" kstp="1" mode="normal"


 OUTPUT CONTROL FOR STRESS PERIOD 437 IS REPEATED USING SETTINGS FROM A PREVIOUS STRESS PERIOD.


 STRESS PERIOD 437 IS TRANSIENT


 REUSING WELS FROM LAST STRESS PERIOD

 REUSING DRNS FROM LAST STRESS PERIOD

 REUSING RCHS FROM LAST STRESS PERIOD


  VOLUME BUDGET FOR ENTIRE MODEL AT END OF TIME STEP    1, STRESS PERIOD 437
  ---------------------------------------------------------------------------------------------------

     CUMULATIVE VOLUME      L**3       RATES FOR THIS TIME STEP      L**3/T          PACKAGE NAME    
     ------------------                 ------------------------                     ----------------

           IN:                                      IN:
           ---                                      ---
              STO-SS =           0.0000                STO-SS =           0.0000     STORAGE         
              STO-SY =  8862136221.9863                STO-SY =     4468085.0944     STORAGE         
                 WEL =           0.0000                   WEL =           0.0000     WEL_0           
                 DRN =           0.0000                   DRN =           0.0000     DRN_0           
                 RCH = 20855241664.5265                   RCH =    88558482.5073     RCH_0           

            TOTAL IN = 29717377886.5128              TOTAL IN =    93026567.6017

          OUT:                                     OUT:
          ----                                     ----
              STO-SS =           0.0000                STO-SS =           0.0000     STORAGE         
              STO-SY =  6086191919.1009                STO-SY =    50444247.3618     STORAGE         
                 WEL =  4674994498.8216                   WEL =     6395492.7521     WEL_0           
                 DRN = 18956184270.5810                   DRN =    36186827.3995     DRN_0           
                 RCH =           0.0000                   RCH =           0.0000     RCH_0           

           TOTAL OUT = 29717370688.5035             TOTAL OUT =    93026567.5134

            IN - OUT =        7198.0093              IN - OUT =       8.8362E-02

 PERCENT DISCREPANCY =           0.00     PERCENT DISCREPANCY =           0.00




         TIME SUMMARY AT END OF TIME STEP    1 IN STRESS PERIOD  437
                          TIME STEP LENGTH =    1.00000    
                        STRESS PERIOD TIME =    1.00000    
                     TOTAL SIMULATION TIME =    437.000    

end timestep


start timestep kper="438" kstp="1" mode="normal"


 OUTPUT CONTROL FOR STRESS PERIOD 438 IS REPEATED USING SETTINGS FROM A PREVIOUS STRESS PERIOD.


 STRESS PERIOD 438 IS TRANSIENT


 REUSING WELS FROM LAST STRESS PERIOD

 REUSING DRNS FROM LAST STRESS PERIOD

 REUSING RCHS FROM LAST STRESS PERIOD


  VOLUME BUDGET FOR ENTIRE MODEL AT END OF TIME STEP    1, STRESS PERIOD 438
  ---------------------------------------------------------------------------------------------------

     CUMULATIVE VOLUME      L**3       RATES FOR THIS TIME STEP      L**3/T          PACKAGE NAME    
     ------------------                 ------------------------                     ----------------

           IN:                                      IN:
           ---                                      ---
              STO-SS =           0.0000                STO-SS =           0.0000     STORAGE         
              STO-SY =  8871640903.1407                STO-SY =     9504681.1544     STORAGE         
                 WEL =           0.0000                   WEL =           0.0000     WEL_0           
                 DRN =           0.0000                   DRN =           0.0000     DRN_0           
                 RCH = 20896077392.6789                   RCH =    40835728.1524     RCH_0           

            TOTAL IN = 29767718295.8197              TOTAL IN =    50340409.3068

          OUT:                                     OUT:
          ----                                     ----
              STO-SS =           0.0000                STO-SS =           0.0000     STORAGE         
              STO-SY =  6101747689.8530                STO-SY =    15555770.7521     STORAGE         
                 WEL =  4681664139.9268                   WEL =     6669641.1052     WEL_0           
                 DRN = 18984299267.9994                   DRN =    28114997.4184     DRN_0           
                 RCH =           0.0000                   RCH =           0.0000     RCH_0           

           TOTAL OUT = 29767711097.7792             TOTAL OUT =    50340409.2757

            IN - OUT =        7198.0404              IN - OUT =       3.1080E-02

 PERCENT DISCREPANCY =           0.00     PERCENT DISCREPANCY =           0.00




         TIME SUMMARY AT END OF TIME STEP    1 IN STRESS PERIOD  438
                          TIME STEP LENGTH =    1.00000    
                        STRESS PERIOD TIME =    1.00000    
                     TOTAL SIMULATION TIME =    438.000    

end timestep


start timestep kper="439" kstp="1" mode="normal"


 OUTPUT CONTROL FOR STRESS PERIOD 439 IS REPEATED USING SETTINGS FROM A PREVIOUS STRESS PERIOD.


 STRESS PERIOD 439 IS TRANSIENT


 REUSING WELS FROM LAST STRESS PERIOD

 REUSING DRNS FROM LAST STRESS PERIOD

 REUSING RCHS FROM LAST STRESS PERIOD


  VOLUME BUDGET FOR ENTIRE MODEL AT END OF TIME STEP    1, STRESS PERIOD 439
  ---------------------------------------------------------------------------------------------------

     CUMULATIVE VOLUME      L**3       RATES FOR THIS TIME STEP      L**3/T          PACKAGE NAME    
     ------------------                 ------------------------                     ----------------

           IN:                                      IN:
           ---                                      ---
              STO-SS =           0.0000                STO-SS =           0.0000     STORAGE         
              STO-SY =  8880389873.8839                STO-SY =     8748970.7432     STORAGE         
                 WEL =           0.0000                   WEL =           0.0000     WEL_0           
                 DRN =           0.0000                   DRN =           0.0000     DRN_0           
                 RCH = 20941467347.6542                   RCH =    45389954.9753     RCH_0           

            TOTAL IN = 29821857221.5381              TOTAL IN =    54138925.7185

          OUT:                                     OUT:
          ----                                     ----
              STO-SS =           0.0000                STO-SS =           0.0000     STORAGE         
              STO-SY =  6118683369.0009                STO-SY =    16935679.1479     STORAGE         
                 WEL =  4690238764.9148                   WEL =     8574624.9880     WEL_0           
                 DRN = 19012927890.7980                   DRN =    28628622.7986     DRN_0           
                 RCH =           0.0000                   RCH =           0.0000     RCH_0           

           TOTAL OUT = 29821850024.7137             TOTAL OUT =    54138926.9345

            IN - OUT =        7196.8244              IN - OUT =          -1.2160

 PERCENT DISCREPANCY =           0.00     PERCENT DISCREPANCY =          -0.00




         TIME SUMMARY AT END OF TIME STEP    1 IN STRESS PERIOD  439
                          TIME STEP LENGTH =    1.00000    
                        STRESS PERIOD TIME =    1.00000    
                     TOTAL SIMULATION TIME =    439.000    

end timestep


start timestep kper="440" kstp="1" mode="normal"


 OUTPUT CONTROL FOR STRESS PERIOD 440 IS REPEATED USING SETTINGS FROM A PREVIOUS STRESS PERIOD.


 STRESS PERIOD 440 IS TRANSIENT


 REUSING WELS FROM LAST STRESS PERIOD

 REUSING DRNS FROM LAST STRESS PERIOD

 REUSING RCHS FROM LAST STRESS PERIOD


  VOLUME BUDGET FOR ENTIRE MODEL AT END OF TIME STEP    1, STRESS PERIOD 440
  ---------------------------------------------------------------------------------------------------

     CUMULATIVE VOLUME      L**3       RATES FOR THIS TIME STEP      L**3/T          PACKAGE NAME    
     ------------------                 ------------------------                     ----------------

           IN:                                      IN:
           ---                                      ---
              STO-SS =           0.0000                STO-SS =           0.0000     STORAGE         
              STO-SY =  8900831432.9455                STO-SY =    20441559.0615     STORAGE         
                 WEL =           0.0000                   WEL =           0.0000     WEL_0           
                 DRN =           0.0000                   DRN =           0.0000     DRN_0           
                 RCH = 20973649835.9332                   RCH =    32182488.2790     RCH_0           

            TOTAL IN = 29874481268.8787              TOTAL IN =    52624047.3406

          OUT:                                     OUT:
          ----                                     ----
              STO-SS =           0.0000                STO-SS =           0.0000     STORAGE         
              STO-SY =  6126770029.4634                STO-SY =     8086660.4625     STORAGE         
                 WEL =  4709270048.0395                   WEL =    19031283.1247     WEL_0           
                 DRN = 19038434002.4970                   DRN =    25506111.6989     DRN_0           
                 RCH =           0.0000                   RCH =           0.0000     RCH_0           

           TOTAL OUT = 29874474079.9999             TOTAL OUT =    52624055.2862

            IN - OUT =        7188.8788              IN - OUT =          -7.9456

 PERCENT DISCREPANCY =           0.00     PERCENT DISCREPANCY =          -0.00




         TIME SUMMARY AT END OF TIME STEP    1 IN STRESS PERIOD  440
                          TIME STEP LENGTH =    1.00000    
                        STRESS PERIOD TIME =    1.00000    
                     TOTAL SIMULATION TIME =    440.000    

end timestep


start timestep kper="441" kstp="1" mode="normal"


 OUTPUT CONTROL FOR STRESS PERIOD 441 IS REPEATED USING SETTINGS FROM A PREVIOUS STRESS PERIOD.


 STRESS PERIOD 441 IS TRANSIENT


 REUSING WELS FROM LAST STRESS PERIOD

 REUSING DRNS FROM LAST STRESS PERIOD

 REUSING RCHS FROM LAST STRESS PERIOD


  VOLUME BUDGET FOR ENTIRE MODEL AT END OF TIME STEP    1, STRESS PERIOD 441
  ---------------------------------------------------------------------------------------------------

     CUMULATIVE VOLUME      L**3       RATES FOR THIS TIME STEP      L**3/T          PACKAGE NAME    
     ------------------                 ------------------------                     ----------------

           IN:                                      IN:
           ---                                      ---
              STO-SS =           0.0000                STO-SS =           0.0000     STORAGE         
              STO-SY =  8916958171.1833                STO-SY =    16126738.2379     STORAGE         
                 WEL =           0.0000                   WEL =           0.0000     WEL_0           
                 DRN =           0.0000                   DRN =           0.0000     DRN_0           
                 RCH = 20998787917.1296                   RCH =    25138081.1964     RCH_0           

            TOTAL IN = 29915746088.3129              TOTAL IN =    41264819.4343

          OUT:                                     OUT:
          ----                                     ----
              STO-SS =           0.0000                STO-SS =           0.0000     STORAGE         
              STO-SY =  6133869034.7083                STO-SY =     7099005.2449     STORAGE         
                 WEL =  4719148580.6422                   WEL =     9878532.6027     WEL_0           
                 DRN = 19062721230.3185                   DRN =    24287227.8216     DRN_0           
                 RCH =           0.0000                   RCH =           0.0000     RCH_0           

           TOTAL OUT = 29915738845.6690             TOTAL OUT =    41264765.6692

            IN - OUT =        7242.6439              IN - OUT =          53.7651

 PERCENT DISCREPANCY =           0.00     PERCENT DISCREPANCY =           0.00




         TIME SUMMARY AT END OF TIME STEP    1 IN STRESS PERIOD  441
                          TIME STEP LENGTH =    1.00000    
                        STRESS PERIOD TIME =    1.00000    
                     TOTAL SIMULATION TIME =    441.000    

end timestep


start timestep kper="442" kstp="1" mode="normal"


 OUTPUT CONTROL FOR STRESS PERIOD 442 IS REPEATED USING SETTINGS FROM A PREVIOUS STRESS PERIOD.


 STRESS PERIOD 442 IS TRANSIENT


 REUSING WELS FROM LAST STRESS PERIOD

 REUSING DRNS FROM LAST STRESS PERIOD

 REUSING RCHS FROM LAST STRESS PERIOD


  VOLUME BUDGET FOR ENTIRE MODEL AT END OF TIME STEP    1, STRESS PERIOD 442
  ---------------------------------------------------------------------------------------------------

     CUMULATIVE VOLUME      L**3       RATES FOR THIS TIME STEP      L**3/T          PACKAGE NAME    
     ------------------                 ------------------------                     ----------------

           IN:                                      IN:
           ---                                      ---
              STO-SS =           0.0000                STO-SS =           0.0000     STORAGE         
              STO-SY =  8937795542.9812                STO-SY =    20837371.7979     STORAGE         
                 WEL =           0.0000                   WEL =           0.0000     WEL_0           
                 DRN =           0.0000                   DRN =           0.0000     DRN_0           
                 RCH = 21024613051.3702                   RCH =    25825134.2405     RCH_0           

            TOTAL IN = 29962408594.3513              TOTAL IN =    46662506.0384

          OUT:                                     OUT:
          ----                                     ----
              STO-SS =           0.0000                STO-SS =           0.0000     STORAGE         
              STO-SY =  6139809705.9054                STO-SY =     5940671.1971     STORAGE         
                 WEL =  4735485954.9135                   WEL =    16337374.2714     WEL_0           
                 DRN = 19087105524.3103                   DRN =    24384293.9917     DRN_0           
                 RCH =           0.0000                   RCH =           0.0000     RCH_0           

           TOTAL OUT = 29962401185.1292             TOTAL OUT =    46662339.4602

            IN - OUT =        7409.2222              IN - OUT =         166.5782

 PERCENT DISCREPANCY =           0.00     PERCENT DISCREPANCY =           0.00




         TIME SUMMARY AT END OF TIME STEP    1 IN STRESS PERIOD  442
                          TIME STEP LENGTH =    1.00000    
                        STRESS PERIOD TIME =    1.00000    
                     TOTAL SIMULATION TIME =    442.000    

end timestep


start timestep kper="443" kstp="1" mode="normal"


 OUTPUT CONTROL FOR STRESS PERIOD 443 IS REPEATED USING SETTINGS FROM A PREVIOUS STRESS PERIOD.


 STRESS PERIOD 443 IS TRANSIENT


 REUSING WELS FROM LAST STRESS PERIOD

 REUSING DRNS FROM LAST STRESS PERIOD

 REUSING RCHS FROM LAST STRESS PERIOD


  VOLUME BUDGET FOR ENTIRE MODEL AT END OF TIME STEP    1, STRESS PERIOD 443
  ---------------------------------------------------------------------------------------------------

     CUMULATIVE VOLUME      L**3       RATES FOR THIS TIME STEP      L**3/T          PACKAGE NAME    
     ------------------                 ------------------------                     ----------------

           IN:                                      IN:
           ---                                      ---
              STO-SS =           0.0000                STO-SS =           0.0000     STORAGE         
              STO-SY =  8955112234.4861                STO-SY =    17316691.5049     STORAGE         
                 WEL =           0.0000                   WEL =           0.0000     WEL_0           
                 DRN =           0.0000                   DRN =           0.0000     DRN_0           
                 RCH = 21045437806.8376                   RCH =    20824755.4675     RCH_0           

            TOTAL IN = 30000550041.3237              TOTAL IN =    38141446.9724

          OUT:                                     OUT:
          ----                                     ----
              STO-SS =           0.0000                STO-SS =           0.0000     STORAGE         
              STO-SY =  6145403619.6726                STO-SY =     5593913.7672     STORAGE         
                 WEL =  4744785044.1254                   WEL =     9299089.2118     WEL_0           
                 DRN = 19110353968.1891                   DRN =    23248443.8789     DRN_0           
                 RCH =           0.0000                   RCH =           0.0000     RCH_0           

           TOTAL OUT = 30000542631.9871             TOTAL OUT =    38141446.8579

            IN - OUT =        7409.3367              IN - OUT =           0.1145

 PERCENT DISCREPANCY =           0.00     PERCENT DISCREPANCY =           0.00




         TIME SUMMARY AT END OF TIME STEP    1 IN STRESS PERIOD  443
                          TIME STEP LENGTH =    1.00000    
                        STRESS PERIOD TIME =    1.00000    
                     TOTAL SIMULATION TIME =    443.000    

end timestep


start timestep kper="444" kstp="1" mode="normal"


 OUTPUT CONTROL FOR STRESS PERIOD 444 IS REPEATED USING SETTINGS FROM A PREVIOUS STRESS PERIOD.


 STRESS PERIOD 444 IS TRANSIENT


 REUSING WELS FROM LAST STRESS PERIOD

 REUSING DRNS FROM LAST STRESS PERIOD

 REUSING RCHS FROM LAST STRESS PERIOD


  VOLUME BUDGET FOR ENTIRE MODEL AT END OF TIME STEP    1, STRESS PERIOD 444
  ---------------------------------------------------------------------------------------------------

     CUMULATIVE VOLUME      L**3       RATES FOR THIS TIME STEP      L**3/T          PACKAGE NAME    
     ------------------                 ------------------------                     ----------------

           IN:                                      IN:
           ---                                      ---
              STO-SS =           0.0000                STO-SS =           0.0000     STORAGE         
              STO-SY =  8977985045.6658                STO-SY =    22872811.1797     STORAGE         
                 WEL =           0.0000                   WEL =           0.0000     WEL_0           
                 DRN =           0.0000                   DRN =           0.0000     DRN_0           
                 RCH = 21070200532.6161                   RCH =    24762725.7785     RCH_0           

            TOTAL IN = 30048185578.2819              TOTAL IN =    47635536.9582

          OUT:                                     OUT:
          ----                                     ----
              STO-SS =           0.0000                STO-SS =           0.0000     STORAGE         
              STO-SY =  6150764424.7769                STO-SY =     5360805.1043     STORAGE         
                 WEL =  4763261010.5089                   WEL =    18475966.3835     WEL_0           
                 DRN = 19134152721.3611                   DRN =    23798753.1720     DRN_0           
                 RCH =           0.0000                   RCH =           0.0000     RCH_0           

           TOTAL OUT = 30048178156.6468             TOTAL OUT =    47635524.6598

            IN - OUT =        7421.6351              IN - OUT =          12.2984

 PERCENT DISCREPANCY =           0.00     PERCENT DISCREPANCY =           0.00




         TIME SUMMARY AT END OF TIME STEP    1 IN STRESS PERIOD  444
                          TIME STEP LENGTH =    1.00000    
                        STRESS PERIOD TIME =    1.00000    
                     TOTAL SIMULATION TIME =    444.000    

end timestep


start timestep kper="445" kstp="1" mode="normal"


 OUTPUT CONTROL FOR STRESS PERIOD 445 IS REPEATED USING SETTINGS FROM A PREVIOUS STRESS PERIOD.


 STRESS PERIOD 445 IS TRANSIENT


 REUSING WELS FROM LAST STRESS PERIOD

 REUSING DRNS FROM LAST STRESS PERIOD

 REUSING RCHS FROM LAST STRESS PERIOD


  VOLUME BUDGET FOR ENTIRE MODEL AT END OF TIME STEP    1, STRESS PERIOD 445
  ---------------------------------------------------------------------------------------------------

     CUMULATIVE VOLUME      L**3       RATES FOR THIS TIME STEP      L**3/T          PACKAGE NAME    
     ------------------                 ------------------------                     ----------------

           IN:                                      IN:
           ---                                      ---
              STO-SS =           0.0000                STO-SS =           0.0000     STORAGE         
              STO-SY =  9000234248.0196                STO-SY =    22249202.3539     STORAGE         
                 WEL =           0.0000                   WEL =           0.0000     WEL_0           
                 DRN =           0.0000                   DRN =           0.0000     DRN_0           
                 RCH = 21111988026.5664                   RCH =    41787493.9502     RCH_0           

            TOTAL IN = 30112222274.5860              TOTAL IN =    64036696.3041

          OUT:                                     OUT:
          ----                                     ----
              STO-SS =           0.0000                STO-SS =           0.0000     STORAGE         
              STO-SY =  6162834542.6943                STO-SY =    12070117.9174     STORAGE         
                 WEL =  4790352830.0540                   WEL =    27091819.5451     WEL_0           
                 DRN = 19159027462.8122                   DRN =    24874741.4510     DRN_0           
                 RCH =           0.0000                   RCH =           0.0000     RCH_0           

           TOTAL OUT = 30112214835.5604             TOTAL OUT =    64036678.9136

            IN - OUT =        7439.0256              IN - OUT =          17.3906

 PERCENT DISCREPANCY =           0.00     PERCENT DISCREPANCY =           0.00




         TIME SUMMARY AT END OF TIME STEP    1 IN STRESS PERIOD  445
                          TIME STEP LENGTH =    1.00000    
                        STRESS PERIOD TIME =    1.00000    
                     TOTAL SIMULATION TIME =    445.000    

end timestep


start timestep kper="446" kstp="1" mode="normal"


 OUTPUT CONTROL FOR STRESS PERIOD 446 IS REPEATED USING SETTINGS FROM A PREVIOUS STRESS PERIOD.


 STRESS PERIOD 446 IS TRANSIENT


 REUSING WELS FROM LAST STRESS PERIOD

 REUSING DRNS FROM LAST STRESS PERIOD

 REUSING RCHS FROM LAST STRESS PERIOD


  VOLUME BUDGET FOR ENTIRE MODEL AT END OF TIME STEP    1, STRESS PERIOD 446
  ---------------------------------------------------------------------------------------------------

     CUMULATIVE VOLUME      L**3       RATES FOR THIS TIME STEP      L**3/T          PACKAGE NAME    
     ------------------                 ------------------------                     ----------------

           IN:                                      IN:
           ---                                      ---
              STO-SS =           0.0000                STO-SS =           0.0000     STORAGE         
              STO-SY =  9004281020.2476                STO-SY =     4046772.2280     STORAGE         
                 WEL =           0.0000                   WEL =           0.0000     WEL_0           
                 DRN =           0.0000                   DRN =           0.0000     DRN_0           
                 RCH = 21217266724.2390                   RCH =   105278697.6727     RCH_0           

            TOTAL IN = 30221547744.4867              TOTAL IN =   109325469.9006

          OUT:                                     OUT:
          ----                                     ----
              STO-SS =           0.0000                STO-SS =           0.0000     STORAGE         
              STO-SY =  6223576463.2398                STO-SY =    60741920.5455     STORAGE         
                 WEL =  4795949439.4549                   WEL =     5596609.4010     WEL_0           
                 DRN = 19202014402.6841                   DRN =    42986939.8720     DRN_0           
                 RCH =           0.0000                   RCH =           0.0000     RCH_0           

           TOTAL OUT = 30221540305.3789             TOTAL OUT =   109325469.8185

            IN - OUT =        7439.1078              IN - OUT =       8.2187E-02

 PERCENT DISCREPANCY =           0.00     PERCENT DISCREPANCY =           0.00




         TIME SUMMARY AT END OF TIME STEP    1 IN STRESS PERIOD  446
                          TIME STEP LENGTH =    1.00000    
                        STRESS PERIOD TIME =    1.00000    
                     TOTAL SIMULATION TIME =    446.000    

end timestep


start timestep kper="447" kstp="1" mode="normal"


 OUTPUT CONTROL FOR STRESS PERIOD 447 IS REPEATED USING SETTINGS FROM A PREVIOUS STRESS PERIOD.


 STRESS PERIOD 447 IS TRANSIENT


 REUSING WELS FROM LAST STRESS PERIOD

 REUSING DRNS FROM LAST STRESS PERIOD

 REUSING RCHS FROM LAST STRESS PERIOD


  VOLUME BUDGET FOR ENTIRE MODEL AT END OF TIME STEP    1, STRESS PERIOD 447
  ---------------------------------------------------------------------------------------------------

     CUMULATIVE VOLUME      L**3       RATES FOR THIS TIME STEP      L**3/T          PACKAGE NAME    
     ------------------                 ------------------------                     ----------------

           IN:                                      IN:
           ---                                      ---
              STO-SS =           0.0000                STO-SS =           0.0000     STORAGE         
              STO-SY =  9021502969.4572                STO-SY =    17221949.2096     STORAGE         
                 WEL =           0.0000                   WEL =           0.0000     WEL_0           
                 DRN =           0.0000                   DRN =           0.0000     DRN_0           
                 RCH = 21237174517.8591                   RCH =    19907793.6201     RCH_0           

            TOTAL IN = 30258677487.3163              TOTAL IN =    37129742.8297

          OUT:                                     OUT:
          ----                                     ----
              STO-SS =           0.0000                STO-SS =           0.0000     STORAGE         
              STO-SY =  6227651888.6938                STO-SY =     4075425.4540     STORAGE         
                 WEL =  4804375414.7159                   WEL =     8425975.2609     WEL_0           
                 DRN = 19226642730.1781                   DRN =    24628327.4940     DRN_0           
                 RCH =           0.0000                   RCH =           0.0000     RCH_0           

           TOTAL OUT = 30258670033.5877             TOTAL OUT =    37129728.2089

            IN - OUT =        7453.7286              IN - OUT =          14.6208

 PERCENT DISCREPANCY =           0.00     PERCENT DISCREPANCY =           0.00




         TIME SUMMARY AT END OF TIME STEP    1 IN STRESS PERIOD  447
                          TIME STEP LENGTH =    1.00000    
                        STRESS PERIOD TIME =    1.00000    
                     TOTAL SIMULATION TIME =    447.000    

end timestep


start timestep kper="448" kstp="1" mode="normal"


 OUTPUT CONTROL FOR STRESS PERIOD 448 IS REPEATED USING SETTINGS FROM A PREVIOUS STRESS PERIOD.


 STRESS PERIOD 448 IS TRANSIENT


 REUSING WELS FROM LAST STRESS PERIOD

 REUSING DRNS FROM LAST STRESS PERIOD

 REUSING RCHS FROM LAST STRESS PERIOD


  VOLUME BUDGET FOR ENTIRE MODEL AT END OF TIME STEP    1, STRESS PERIOD 448
  ---------------------------------------------------------------------------------------------------

     CUMULATIVE VOLUME      L**3       RATES FOR THIS TIME STEP      L**3/T          PACKAGE NAME    
     ------------------                 ------------------------                     ----------------

           IN:                                      IN:
           ---                                      ---
              STO-SS =           0.0000                STO-SS =           0.0000     STORAGE         
              STO-SY =  9039710277.4872                STO-SY =    18207308.0300     STORAGE         
                 WEL =           0.0000                   WEL =           0.0000     WEL_0           
                 DRN =           0.0000                   DRN =           0.0000     DRN_0           
                 RCH = 21262376401.0367                   RCH =    25201883.1775     RCH_0           

            TOTAL IN = 30302086678.5238              TOTAL IN =    43409191.2075

          OUT:                                     OUT:
          ----                                     ----
              STO-SS =           0.0000                STO-SS =           0.0000     STORAGE         
              STO-SY =  6233342907.3806                STO-SY =     5691018.6868     STORAGE         
                 WEL =  4816611020.8530                   WEL =    12235606.1371     WEL_0           
                 DRN = 19252125299.3917                   DRN =    25482569.2136     DRN_0           
                 RCH =           0.0000                   RCH =           0.0000     RCH_0           

           TOTAL OUT = 30302079227.6252             TOTAL OUT =    43409194.0375

            IN - OUT =        7450.8986              IN - OUT =          -2.8300

 PERCENT DISCREPANCY =           0.00     PERCENT DISCREPANCY =          -0.00




         TIME SUMMARY AT END OF TIME STEP    1 IN STRESS PERIOD  448
                          TIME STEP LENGTH =    1.00000    
                        STRESS PERIOD TIME =    1.00000    
                     TOTAL SIMULATION TIME =    448.000    

end timestep


start timestep kper="449" kstp="1" mode="normal"


 OUTPUT CONTROL FOR STRESS PERIOD 449 IS REPEATED USING SETTINGS FROM A PREVIOUS STRESS PERIOD.


 STRESS PERIOD 449 IS TRANSIENT


 REUSING WELS FROM LAST STRESS PERIOD

 REUSING DRNS FROM LAST STRESS PERIOD

 REUSING RCHS FROM LAST STRESS PERIOD


  VOLUME BUDGET FOR ENTIRE MODEL AT END OF TIME STEP    1, STRESS PERIOD 449
  ---------------------------------------------------------------------------------------------------

     CUMULATIVE VOLUME      L**3       RATES FOR THIS TIME STEP      L**3/T          PACKAGE NAME    
     ------------------                 ------------------------                     ----------------

           IN:                                      IN:
           ---                                      ---
              STO-SS =           0.0000                STO-SS =           0.0000     STORAGE         
              STO-SY =  9052743811.8306                STO-SY =    13033534.3434     STORAGE         
                 WEL =           0.0000                   WEL =           0.0000     WEL_0           
                 DRN =           0.0000                   DRN =           0.0000     DRN_0           
                 RCH = 21288261331.4279                   RCH =    25884930.3912     RCH_0           

            TOTAL IN = 30341005143.2585              TOTAL IN =    38918464.7346

          OUT:                                     OUT:
          ----                                     ----
              STO-SS =           0.0000                STO-SS =           0.0000     STORAGE         
              STO-SY =  6238482806.0046                STO-SY =     5139898.6240     STORAGE         
                 WEL =  4824951887.9139                   WEL =     8340867.0609     WEL_0           
                 DRN = 19277563030.1525                   DRN =    25437730.7608     DRN_0           
                 RCH =           0.0000                   RCH =           0.0000     RCH_0           

           TOTAL OUT = 30340997724.0709             TOTAL OUT =    38918496.4457

            IN - OUT =        7419.1875              IN - OUT =         -31.7111

 PERCENT DISCREPANCY =           0.00     PERCENT DISCREPANCY =          -0.00




         TIME SUMMARY AT END OF TIME STEP    1 IN STRESS PERIOD  449
                          TIME STEP LENGTH =    1.00000    
                        STRESS PERIOD TIME =    1.00000    
                     TOTAL SIMULATION TIME =    449.000    

end timestep


start timestep kper="450" kstp="1" mode="normal"


 OUTPUT CONTROL FOR STRESS PERIOD 450 IS REPEATED USING SETTINGS FROM A PREVIOUS STRESS PERIOD.


 STRESS PERIOD 450 IS TRANSIENT


 REUSING WELS FROM LAST STRESS PERIOD

 REUSING DRNS FROM LAST STRESS PERIOD

 REUSING RCHS FROM LAST STRESS PERIOD


  VOLUME BUDGET FOR ENTIRE MODEL AT END OF TIME STEP    1, STRESS PERIOD 450
  ---------------------------------------------------------------------------------------------------

     CUMULATIVE VOLUME      L**3       RATES FOR THIS TIME STEP      L**3/T          PACKAGE NAME    
     ------------------                 ------------------------                     ----------------

           IN:                                      IN:
           ---                                      ---
              STO-SS =           0.0000                STO-SS =           0.0000     STORAGE         
              STO-SY =  9085951145.2913                STO-SY =    33207333.4607     STORAGE         
                 WEL =           0.0000                   WEL =           0.0000     WEL_0           
                 DRN =           0.0000                   DRN =           0.0000     DRN_0           
                 RCH = 21322279805.5924                   RCH =    34018474.1646     RCH_0           

            TOTAL IN = 30408230950.8837              TOTAL IN =    67225807.6253

          OUT:                                     OUT:
          ----                                     ----
              STO-SS =           0.0000                STO-SS =           0.0000     STORAGE         
              STO-SY =  6244909285.0882                STO-SY =     6426479.0837     STORAGE         
                 WEL =  4860855341.9761                   WEL =    35903454.0622     WEL_0           
                 DRN = 19302458876.4740                   DRN =    24895846.3216     DRN_0           
                 RCH =           0.0000                   RCH =           0.0000     RCH_0           

           TOTAL OUT = 30408223503.5384             TOTAL OUT =    67225779.4674

            IN - OUT =        7447.3454              IN - OUT =          28.1578

 PERCENT DISCREPANCY =           0.00     PERCENT DISCREPANCY =           0.00




         TIME SUMMARY AT END OF TIME STEP    1 IN STRESS PERIOD  450
                          TIME STEP LENGTH =    1.00000    
                        STRESS PERIOD TIME =    1.00000    
                     TOTAL SIMULATION TIME =    450.000    

end timestep


start timestep kper="451" kstp="1" mode="normal"


 OUTPUT CONTROL FOR STRESS PERIOD 451 IS REPEATED USING SETTINGS FROM A PREVIOUS STRESS PERIOD.


 STRESS PERIOD 451 IS TRANSIENT


 REUSING WELS FROM LAST STRESS PERIOD

 REUSING DRNS FROM LAST STRESS PERIOD

 REUSING RCHS FROM LAST STRESS PERIOD


  VOLUME BUDGET FOR ENTIRE MODEL AT END OF TIME STEP    1, STRESS PERIOD 451
  ---------------------------------------------------------------------------------------------------

     CUMULATIVE VOLUME      L**3       RATES FOR THIS TIME STEP      L**3/T          PACKAGE NAME    
     ------------------                 ------------------------                     ----------------

           IN:                                      IN:
           ---                                      ---
              STO-SS =           0.0000                STO-SS =           0.0000     STORAGE         
              STO-SY =  9111136231.2877                STO-SY =    25185085.9964     STORAGE         
                 WEL =           0.0000                   WEL =           0.0000     WEL_0           
                 DRN =           0.0000                   DRN =           0.0000     DRN_0           
                 RCH = 21345627774.1816                   RCH =    23347968.5892     RCH_0           

            TOTAL IN = 30456764005.4692              TOTAL IN =    48533054.5855

          OUT:                                     OUT:
          ----                                     ----
              STO-SS =           0.0000                STO-SS =           0.0000     STORAGE         
              STO-SY =  6249463743.7296                STO-SY =     4554458.6414     STORAGE         
                 WEL =  4882164497.2436                   WEL =    21309155.2676     WEL_0           
                 DRN = 19325128318.6577                   DRN =    22669442.1837     DRN_0           
                 RCH =           0.0000                   RCH =           0.0000     RCH_0           

           TOTAL OUT = 30456756559.6310             TOTAL OUT =    48533056.0926

            IN - OUT =        7445.8383              IN - OUT =          -1.5071

 PERCENT DISCREPANCY =           0.00     PERCENT DISCREPANCY =          -0.00




         TIME SUMMARY AT END OF TIME STEP    1 IN STRESS PERIOD  451
                          TIME STEP LENGTH =    1.00000    
                        STRESS PERIOD TIME =    1.00000    
                     TOTAL SIMULATION TIME =    451.000    

end timestep


start timestep kper="452" kstp="1" mode="normal"


 OUTPUT CONTROL FOR STRESS PERIOD 452 IS REPEATED USING SETTINGS FROM A PREVIOUS STRESS PERIOD.


 STRESS PERIOD 452 IS TRANSIENT


 REUSING WELS FROM LAST STRESS PERIOD

 REUSING DRNS FROM LAST STRESS PERIOD

 REUSING RCHS FROM LAST STRESS PERIOD


  VOLUME BUDGET FOR ENTIRE MODEL AT END OF TIME STEP    1, STRESS PERIOD 452
  ---------------------------------------------------------------------------------------------------

     CUMULATIVE VOLUME      L**3       RATES FOR THIS TIME STEP      L**3/T          PACKAGE NAME    
     ------------------                 ------------------------                     ----------------

           IN:                                      IN:
           ---                                      ---
              STO-SS =           0.0000                STO-SS =           0.0000     STORAGE         
              STO-SY =  9134518485.5039                STO-SY =    23382254.2162     STORAGE         
                 WEL =           0.0000                   WEL =           0.0000     WEL_0           
                 DRN =           0.0000                   DRN =           0.0000     DRN_0           
                 RCH = 21394887071.0011                   RCH =    49259296.8195     RCH_0           

            TOTAL IN = 30529405556.5050              TOTAL IN =    72641551.0357

          OUT:                                     OUT:
          ----                                     ----
              STO-SS =           0.0000                STO-SS =           0.0000     STORAGE         
              STO-SY =  6262873187.1910                STO-SY =    13409443.4614     STORAGE         
                 WEL =  4915449540.9831                   WEL =    33285043.7394     WEL_0           
                 DRN = 19351075384.2585                   DRN =    25947065.6008     DRN_0           
                 RCH =           0.0000                   RCH =           0.0000     RCH_0           

           TOTAL OUT = 30529398112.4326             TOTAL OUT =    72641552.8016

            IN - OUT =        7444.0724              IN - OUT =          -1.7659

 PERCENT DISCREPANCY =           0.00     PERCENT DISCREPANCY =          -0.00




         TIME SUMMARY AT END OF TIME STEP    1 IN STRESS PERIOD  452
                          TIME STEP LENGTH =    1.00000    
                        STRESS PERIOD TIME =    1.00000    
                     TOTAL SIMULATION TIME =    452.000    

end timestep


start timestep kper="453" kstp="1" mode="normal"


 OUTPUT CONTROL FOR STRESS PERIOD 453 IS REPEATED USING SETTINGS FROM A PREVIOUS STRESS PERIOD.


 STRESS PERIOD 453 IS TRANSIENT


 REUSING WELS FROM LAST STRESS PERIOD

 REUSING DRNS FROM LAST STRESS PERIOD

 REUSING RCHS FROM LAST STRESS PERIOD


  VOLUME BUDGET FOR ENTIRE MODEL AT END OF TIME STEP    1, STRESS PERIOD 453
  ---------------------------------------------------------------------------------------------------

     CUMULATIVE VOLUME      L**3       RATES FOR THIS TIME STEP      L**3/T          PACKAGE NAME    
     ------------------                 ------------------------                     ----------------

           IN:                                      IN:
           ---                                      ---
              STO-SS =           0.0000                STO-SS =           0.0000     STORAGE         
              STO-SY =  9139369693.0943                STO-SY =     4851207.5904     STORAGE         
                 WEL =           0.0000                   WEL =           0.0000     WEL_0           
                 DRN =           0.0000                   DRN =           0.0000     DRN_0           
                 RCH = 21493613984.2388                   RCH =    98726913.2377     RCH_0           

            TOTAL IN = 30632983677.3331              TOTAL IN =   103578120.8281

          OUT:                                     OUT:
          ----                                     ----
              STO-SS =           0.0000                STO-SS =           0.0000     STORAGE         
              STO-SY =  6326337787.7115                STO-SY =    63464600.5205     STORAGE         
                 WEL =  4925070034.7199                   WEL =     9620493.7369     WEL_0           
                 DRN = 19381568417.4716                   DRN =    30493033.2131     DRN_0           
                 RCH =           0.0000                   RCH =           0.0000     RCH_0           

           TOTAL OUT = 30632976239.9030             TOTAL OUT =   103578127.4705

            IN - OUT =        7437.4301              IN - OUT =          -6.6423

 PERCENT DISCREPANCY =           0.00     PERCENT DISCREPANCY =          -0.00




         TIME SUMMARY AT END OF TIME STEP    1 IN STRESS PERIOD  453
                          TIME STEP LENGTH =    1.00000    
                        STRESS PERIOD TIME =    1.00000    
                     TOTAL SIMULATION TIME =    453.000    

end timestep


start timestep kper="454" kstp="1" mode="normal"


 OUTPUT CONTROL FOR STRESS PERIOD 454 IS REPEATED USING SETTINGS FROM A PREVIOUS STRESS PERIOD.


 STRESS PERIOD 454 IS TRANSIENT


 REUSING WELS FROM LAST STRESS PERIOD

 REUSING DRNS FROM LAST STRESS PERIOD

 REUSING RCHS FROM LAST STRESS PERIOD


  VOLUME BUDGET FOR ENTIRE MODEL AT END OF TIME STEP    1, STRESS PERIOD 454
  ---------------------------------------------------------------------------------------------------

     CUMULATIVE VOLUME      L**3       RATES FOR THIS TIME STEP      L**3/T          PACKAGE NAME    
     ------------------                 ------------------------                     ----------------

           IN:                                      IN:
           ---                                      ---
              STO-SS =           0.0000                STO-SS =           0.0000     STORAGE         
              STO-SY =  9148646002.6590                STO-SY =     9276309.5647     STORAGE         
                 WEL =           0.0000                   WEL =           0.0000     WEL_0           
                 DRN =           0.0000                   DRN =           0.0000     DRN_0           
                 RCH = 21546957530.7263                   RCH =    53343546.4875     RCH_0           

            TOTAL IN = 30695603533.3853              TOTAL IN =    62619856.0522

          OUT:                                     OUT:
          ----                                     ----
              STO-SS =           0.0000                STO-SS =           0.0000     STORAGE         
              STO-SY =  6347815732.7036                STO-SY =    21477944.9921     STORAGE         
                 WEL =  4934225445.9668                   WEL =     9155411.2469     WEL_0           
                 DRN = 19413554913.2858                   DRN =    31986495.8142     DRN_0           
                 RCH =           0.0000                   RCH =           0.0000     RCH_0           

           TOTAL OUT = 30695596091.9563             TOTAL OUT =    62619852.0532

            IN - OUT =        7441.4290              IN - OUT =           3.9989

 PERCENT DISCREPANCY =           0.00     PERCENT DISCREPANCY =           0.00




         TIME SUMMARY AT END OF TIME STEP    1 IN STRESS PERIOD  454
                          TIME STEP LENGTH =    1.00000    
                        STRESS PERIOD TIME =    1.00000    
                     TOTAL SIMULATION TIME =    454.000    

end timestep


start timestep kper="455" kstp="1" mode="normal"


 OUTPUT CONTROL FOR STRESS PERIOD 455 IS REPEATED USING SETTINGS FROM A PREVIOUS STRESS PERIOD.


 STRESS PERIOD 455 IS TRANSIENT


 REUSING WELS FROM LAST STRESS PERIOD

 REUSING DRNS FROM LAST STRESS PERIOD

 REUSING RCHS FROM LAST STRESS PERIOD


  VOLUME BUDGET FOR ENTIRE MODEL AT END OF TIME STEP    1, STRESS PERIOD 455
  ---------------------------------------------------------------------------------------------------

     CUMULATIVE VOLUME      L**3       RATES FOR THIS TIME STEP      L**3/T          PACKAGE NAME    
     ------------------                 ------------------------                     ----------------

           IN:                                      IN:
           ---                                      ---
              STO-SS =           0.0000                STO-SS =           0.0000     STORAGE         
              STO-SY =  9157537427.8782                STO-SY =     8891425.2193     STORAGE         
                 WEL =           0.0000                   WEL =           0.0000     WEL_0           
                 DRN =           0.0000                   DRN =           0.0000     DRN_0           
                 RCH = 21594634492.2324                   RCH =    47676961.5060     RCH_0           

            TOTAL IN = 30752171920.1106              TOTAL IN =    56568386.7253

          OUT:                                     OUT:
          ----                                     ----
              STO-SS =           0.0000                STO-SS =           0.0000     STORAGE         
              STO-SY =  6369643453.8645                STO-SY =    21827721.1609     STORAGE         
                 WEL =  4941471979.5464                   WEL =     7246533.5796     WEL_0           
                 DRN = 19441049046.9206                   DRN =    27494133.6347     DRN_0           
                 RCH =           0.0000                   RCH =           0.0000     RCH_0           

           TOTAL OUT = 30752164480.3315             TOTAL OUT =    56568388.3752

            IN - OUT =        7439.7791              IN - OUT =          -1.6499

 PERCENT DISCREPANCY =           0.00     PERCENT DISCREPANCY =          -0.00




         TIME SUMMARY AT END OF TIME STEP    1 IN STRESS PERIOD  455
                          TIME STEP LENGTH =    1.00000    
                        STRESS PERIOD TIME =    1.00000    
                     TOTAL SIMULATION TIME =    455.000    

end timestep


start timestep kper="456" kstp="1" mode="normal"


 OUTPUT CONTROL FOR STRESS PERIOD 456 IS REPEATED USING SETTINGS FROM A PREVIOUS STRESS PERIOD.


 STRESS PERIOD 456 IS TRANSIENT


 REUSING WELS FROM LAST STRESS PERIOD

 REUSING DRNS FROM LAST STRESS PERIOD

 REUSING RCHS FROM LAST STRESS PERIOD


  VOLUME BUDGET FOR ENTIRE MODEL AT END OF TIME STEP    1, STRESS PERIOD 456
  ---------------------------------------------------------------------------------------------------

     CUMULATIVE VOLUME      L**3       RATES FOR THIS TIME STEP      L**3/T          PACKAGE NAME    
     ------------------                 ------------------------                     ----------------

           IN:                                      IN:
           ---                                      ---
              STO-SS =           0.0000                STO-SS =           0.0000     STORAGE         
              STO-SY =  9159851433.0664                STO-SY =     2314005.1882     STORAGE         
                 WEL =           0.0000                   WEL =           0.0000     WEL_0           
                 DRN =           0.0000                   DRN =           0.0000     DRN_0           
                 RCH = 21785131507.9807                   RCH =   190497015.7484     RCH_0           

            TOTAL IN = 30944982941.0471              TOTAL IN =   192811020.9365

          OUT:                                     OUT:
          ----                                     ----
              STO-SS =           0.0000                STO-SS =           0.0000     STORAGE         
              STO-SY =  6493402650.0753                STO-SY =   123759196.2108     STORAGE         
                 WEL =  4947689654.8274                   WEL =     6217675.2810     WEL_0           
                 DRN = 19503883195.8986                   DRN =    62834148.9781     DRN_0           
                 RCH =           0.0000                   RCH =           0.0000     RCH_0           

           TOTAL OUT = 30944975500.8014             TOTAL OUT =   192811020.4699

            IN - OUT =        7440.2458              IN - OUT =           0.4666

 PERCENT DISCREPANCY =           0.00     PERCENT DISCREPANCY =           0.00




         TIME SUMMARY AT END OF TIME STEP    1 IN STRESS PERIOD  456
                          TIME STEP LENGTH =    1.00000    
                        STRESS PERIOD TIME =    1.00000    
                     TOTAL SIMULATION TIME =    456.000    

end timestep


start timestep kper="457" kstp="1" mode="normal"


 OUTPUT CONTROL FOR STRESS PERIOD 457 IS REPEATED USING SETTINGS FROM A PREVIOUS STRESS PERIOD.


 STRESS PERIOD 457 IS TRANSIENT


 REUSING WELS FROM LAST STRESS PERIOD

 REUSING DRNS FROM LAST STRESS PERIOD

 REUSING RCHS FROM LAST STRESS PERIOD


  VOLUME BUDGET FOR ENTIRE MODEL AT END OF TIME STEP    1, STRESS PERIOD 457
  ---------------------------------------------------------------------------------------------------

     CUMULATIVE VOLUME      L**3       RATES FOR THIS TIME STEP      L**3/T          PACKAGE NAME    
     ------------------                 ------------------------                     ----------------

           IN:                                      IN:
           ---                                      ---
              STO-SS =           0.0000                STO-SS =           0.0000     STORAGE         
              STO-SY =  9166799687.7924                STO-SY =     6948254.7260     STORAGE         
                 WEL =           0.0000                   WEL =           0.0000     WEL_0           
                 DRN =           0.0000                   DRN =           0.0000     DRN_0           
                 RCH = 21911252688.2733                   RCH =   126121180.2925     RCH_0           

            TOTAL IN = 31078052376.0657              TOTAL IN =   133069435.0186

          OUT:                                     OUT:
          ----                                     ----
              STO-SS =           0.0000                STO-SS =           0.0000     STORAGE         
              STO-SY =  6579170074.7919                STO-SY =    85767424.7166     STORAGE         
                 WEL =  4954323824.7196                   WEL =     6634169.8921     WEL_0           
                 DRN = 19544551036.5319                   DRN =    40667840.6332     DRN_0           
                 RCH =           0.0000                   RCH =           0.0000     RCH_0           

           TOTAL OUT = 31078044936.0433             TOTAL OUT =   133069435.2419

            IN - OUT =        7440.0224              IN - OUT =          -0.2234

 PERCENT DISCREPANCY =           0.00     PERCENT DISCREPANCY =          -0.00




         TIME SUMMARY AT END OF TIME STEP    1 IN STRESS PERIOD  457
                          TIME STEP LENGTH =    1.00000    
                        STRESS PERIOD TIME =    1.00000    
                     TOTAL SIMULATION TIME =    457.000    

end timestep


start timestep kper="458" kstp="1" mode="normal"


 OUTPUT CONTROL FOR STRESS PERIOD 458 IS REPEATED USING SETTINGS FROM A PREVIOUS STRESS PERIOD.


 STRESS PERIOD 458 IS TRANSIENT


 REUSING WELS FROM LAST STRESS PERIOD

 REUSING DRNS FROM LAST STRESS PERIOD

 REUSING RCHS FROM LAST STRESS PERIOD


  VOLUME BUDGET FOR ENTIRE MODEL AT END OF TIME STEP    1, STRESS PERIOD 458
  ---------------------------------------------------------------------------------------------------

     CUMULATIVE VOLUME      L**3       RATES FOR THIS TIME STEP      L**3/T          PACKAGE NAME    
     ------------------                 ------------------------                     ----------------

           IN:                                      IN:
           ---                                      ---
              STO-SS =           0.0000                STO-SS =           0.0000     STORAGE         
              STO-SY =  9170870252.8509                STO-SY =     4070565.0584     STORAGE         
                 WEL =           0.0000                   WEL =           0.0000     WEL_0           
                 DRN =           0.0000                   DRN =           0.0000     DRN_0           
                 RCH = 22032363802.6026                   RCH =   121111114.3294     RCH_0           

            TOTAL IN = 31203234055.4535              TOTAL IN =   125181679.3878

          OUT:                                     OUT:
          ----                                     ----
              STO-SS =           0.0000                STO-SS =           0.0000     STORAGE         
              STO-SY =  6645440023.6295                STO-SY =    66269948.8376     STORAGE         
                 WEL =  4958690690.6681                   WEL =     4366865.9485     WEL_0           
                 DRN = 19599095901.0875                   DRN =    54544864.5556     DRN_0           
                 RCH =           0.0000                   RCH =           0.0000     RCH_0           

           TOTAL OUT = 31203226615.3851             TOTAL OUT =   125181679.3418

            IN - OUT =        7440.0684              IN - OUT =       4.5995E-02

 PERCENT DISCREPANCY =           0.00     PERCENT DISCREPANCY =           0.00




         TIME SUMMARY AT END OF TIME STEP    1 IN STRESS PERIOD  458
                          TIME STEP LENGTH =    1.00000    
                        STRESS PERIOD TIME =    1.00000    
                     TOTAL SIMULATION TIME =    458.000    

end timestep


start timestep kper="459" kstp="1" mode="normal"


 OUTPUT CONTROL FOR STRESS PERIOD 459 IS REPEATED USING SETTINGS FROM A PREVIOUS STRESS PERIOD.


 STRESS PERIOD 459 IS TRANSIENT


 REUSING WELS FROM LAST STRESS PERIOD

 REUSING DRNS FROM LAST STRESS PERIOD

 REUSING RCHS FROM LAST STRESS PERIOD


  VOLUME BUDGET FOR ENTIRE MODEL AT END OF TIME STEP    1, STRESS PERIOD 459
  ---------------------------------------------------------------------------------------------------

     CUMULATIVE VOLUME      L**3       RATES FOR THIS TIME STEP      L**3/T          PACKAGE NAME    
     ------------------                 ------------------------                     ----------------

           IN:                                      IN:
           ---                                      ---
              STO-SS =           0.0000                STO-SS =           0.0000     STORAGE         
              STO-SY =  9181133424.5730                STO-SY =    10263171.7222     STORAGE         
                 WEL =           0.0000                   WEL =           0.0000     WEL_0           
                 DRN =           0.0000                   DRN =           0.0000     DRN_0           
                 RCH = 22080421119.7041                   RCH =    48057317.1015     RCH_0           

            TOTAL IN = 31261554544.2772              TOTAL IN =    58320488.8237

          OUT:                                     OUT:
          ----                                     ----
              STO-SS =           0.0000                STO-SS =           0.0000     STORAGE         
              STO-SY =  6666607422.7641                STO-SY =    21167399.1346     STORAGE         
                 WEL =  4964745890.1306                   WEL =     6055199.4625     WEL_0           
                 DRN = 19630193808.4855                   DRN =    31097907.3980     DRN_0           
                 RCH =           0.0000                   RCH =           0.0000     RCH_0           

           TOTAL OUT = 31261547121.3802             TOTAL OUT =    58320505.9951

            IN - OUT =        7422.8969              IN - OUT =         -17.1715

 PERCENT DISCREPANCY =           0.00     PERCENT DISCREPANCY =          -0.00




         TIME SUMMARY AT END OF TIME STEP    1 IN STRESS PERIOD  459
                          TIME STEP LENGTH =    1.00000    
                        STRESS PERIOD TIME =    1.00000    
                     TOTAL SIMULATION TIME =    459.000    

end timestep


start timestep kper="460" kstp="1" mode="normal"


 OUTPUT CONTROL FOR STRESS PERIOD 460 IS REPEATED USING SETTINGS FROM A PREVIOUS STRESS PERIOD.


 STRESS PERIOD 460 IS TRANSIENT


 REUSING WELS FROM LAST STRESS PERIOD

 REUSING DRNS FROM LAST STRESS PERIOD

 REUSING RCHS FROM LAST STRESS PERIOD


  VOLUME BUDGET FOR ENTIRE MODEL AT END OF TIME STEP    1, STRESS PERIOD 460
  ---------------------------------------------------------------------------------------------------

     CUMULATIVE VOLUME      L**3       RATES FOR THIS TIME STEP      L**3/T          PACKAGE NAME    
     ------------------                 ------------------------                     ----------------

           IN:                                      IN:
           ---                                      ---
              STO-SS =           0.0000                STO-SS =           0.0000     STORAGE         
              STO-SY =  9186086182.6191                STO-SY =     4952758.0461     STORAGE         
                 WEL =           0.0000                   WEL =           0.0000     WEL_0           
                 DRN =           0.0000                   DRN =           0.0000     DRN_0           
                 RCH = 22202997833.8126                   RCH =   122576714.1085     RCH_0           

            TOTAL IN = 31389084016.4317              TOTAL IN =   127529472.1546

          OUT:                                     OUT:
          ----                                     ----
              STO-SS =           0.0000                STO-SS =           0.0000     STORAGE         
              STO-SY =  6750060133.7749                STO-SY =    83452711.0108     STORAGE         
                 WEL =  4970603465.2425                   WEL =     5857575.1119     WEL_0           
                 DRN = 19668412985.3225                   DRN =    38219176.8370     DRN_0           
                 RCH =           0.0000                   RCH =           0.0000     RCH_0           

           TOTAL OUT = 31389076584.3399             TOTAL OUT =   127529462.9597

            IN - OUT =        7432.0918              IN - OUT =           9.1949

 PERCENT DISCREPANCY =           0.00     PERCENT DISCREPANCY =           0.00




         TIME SUMMARY AT END OF TIME STEP    1 IN STRESS PERIOD  460
                          TIME STEP LENGTH =    1.00000    
                        STRESS PERIOD TIME =    1.00000    
                     TOTAL SIMULATION TIME =    460.000    

end timestep


start timestep kper="461" kstp="1" mode="normal"


 OUTPUT CONTROL FOR STRESS PERIOD 461 IS REPEATED USING SETTINGS FROM A PREVIOUS STRESS PERIOD.


 STRESS PERIOD 461 IS TRANSIENT


 REUSING WELS FROM LAST STRESS PERIOD

 REUSING DRNS FROM LAST STRESS PERIOD

 REUSING RCHS FROM LAST STRESS PERIOD


  VOLUME BUDGET FOR ENTIRE MODEL AT END OF TIME STEP    1, STRESS PERIOD 461
  ---------------------------------------------------------------------------------------------------

     CUMULATIVE VOLUME      L**3       RATES FOR THIS TIME STEP      L**3/T          PACKAGE NAME    
     ------------------                 ------------------------                     ----------------

           IN:                                      IN:
           ---                                      ---
              STO-SS =           0.0000                STO-SS =           0.0000     STORAGE         
              STO-SY =  9188523539.0717                STO-SY =     2437356.4526     STORAGE         
                 WEL =           0.0000                   WEL =           0.0000     WEL_0           
                 DRN =           0.0000                   DRN =           0.0000     DRN_0           
                 RCH = 22513021882.8902                   RCH =   310024049.0775     RCH_0           

            TOTAL IN = 31701545421.9619              TOTAL IN =   312461405.5302

          OUT:                                     OUT:
          ----                                     ----
              STO-SS =           0.0000                STO-SS =           0.0000     STORAGE         
              STO-SY =  6986760897.0873                STO-SY =   236700763.3125     STORAGE         
                 WEL =  4973608845.2409                   WEL =     3005379.9984     WEL_0           
                 DRN = 19741168236.2827                   DRN =    72755250.9602     DRN_0           
                 RCH =           0.0000                   RCH =           0.0000     RCH_0           

           TOTAL OUT = 31701537978.6110             TOTAL OUT =   312461394.2711

            IN - OUT =        7443.3509              IN - OUT =          11.2591

 PERCENT DISCREPANCY =           0.00     PERCENT DISCREPANCY =           0.00




         TIME SUMMARY AT END OF TIME STEP    1 IN STRESS PERIOD  461
                          TIME STEP LENGTH =    1.00000    
                        STRESS PERIOD TIME =    1.00000    
                     TOTAL SIMULATION TIME =    461.000    

end timestep


start timestep kper="462" kstp="1" mode="normal"


 OUTPUT CONTROL FOR STRESS PERIOD 462 IS REPEATED USING SETTINGS FROM A PREVIOUS STRESS PERIOD.


 STRESS PERIOD 462 IS TRANSIENT


 REUSING WELS FROM LAST STRESS PERIOD

 REUSING DRNS FROM LAST STRESS PERIOD

 REUSING RCHS FROM LAST STRESS PERIOD


  VOLUME BUDGET FOR ENTIRE MODEL AT END OF TIME STEP    1, STRESS PERIOD 462
  ---------------------------------------------------------------------------------------------------

     CUMULATIVE VOLUME      L**3       RATES FOR THIS TIME STEP      L**3/T          PACKAGE NAME    
     ------------------                 ------------------------                     ----------------

           IN:                                      IN:
           ---                                      ---
              STO-SS =           0.0000                STO-SS =           0.0000     STORAGE         
              STO-SY =  9194980839.1644                STO-SY =     6457300.0927     STORAGE         
                 WEL =           0.0000                   WEL =           0.0000     WEL_0           
                 DRN =           0.0000                   DRN =           0.0000     DRN_0           
                 RCH = 22601616484.6633                   RCH =    88594601.7731     RCH_0           

            TOTAL IN = 31796597323.8277              TOTAL IN =    95051901.8658

          OUT:                                     OUT:
          ----                                     ----
              STO-SS =           0.0000                STO-SS =           0.0000     STORAGE         
              STO-SY =  7028322007.0673                STO-SY =    41561109.9799     STORAGE         
                 WEL =  4977873019.8606                   WEL =     4264174.6196     WEL_0           
                 DRN = 19790394833.0709                   DRN =    49226596.7882     DRN_0           
                 RCH =           0.0000                   RCH =           0.0000     RCH_0           

           TOTAL OUT = 31796589859.9987             TOTAL OUT =    95051881.3877

            IN - OUT =        7463.8290              IN - OUT =          20.4781

 PERCENT DISCREPANCY =           0.00     PERCENT DISCREPANCY =           0.00




         TIME SUMMARY AT END OF TIME STEP    1 IN STRESS PERIOD  462
                          TIME STEP LENGTH =    1.00000    
                        STRESS PERIOD TIME =    1.00000    
                     TOTAL SIMULATION TIME =    462.000    

end timestep


start timestep kper="463" kstp="1" mode="normal"


 OUTPUT CONTROL FOR STRESS PERIOD 463 IS REPEATED USING SETTINGS FROM A PREVIOUS STRESS PERIOD.


 STRESS PERIOD 463 IS TRANSIENT


 REUSING WELS FROM LAST STRESS PERIOD

 REUSING DRNS FROM LAST STRESS PERIOD

 REUSING RCHS FROM LAST STRESS PERIOD


  VOLUME BUDGET FOR ENTIRE MODEL AT END OF TIME STEP    1, STRESS PERIOD 463
  ---------------------------------------------------------------------------------------------------

     CUMULATIVE VOLUME      L**3       RATES FOR THIS TIME STEP      L**3/T          PACKAGE NAME    
     ------------------                 ------------------------                     ----------------

           IN:                                      IN:
           ---                                      ---
              STO-SS =           0.0000                STO-SS =           0.0000     STORAGE         
              STO-SY =  9198798318.5472                STO-SY =     3817479.3828     STORAGE         
                 WEL =           0.0000                   WEL =           0.0000     WEL_0           
                 DRN =           0.0000                   DRN =           0.0000     DRN_0           
                 RCH = 22704699457.9025                   RCH =   103082973.2392     RCH_0           

            TOTAL IN = 31903497776.4498              TOTAL IN =   106900452.6221

          OUT:                                     OUT:
          ----                                     ----
              STO-SS =           0.0000                STO-SS =           0.0000     STORAGE         
              STO-SY =  7080461893.9476                STO-SY =    52139886.8804     STORAGE         
                 WEL =  4981323690.8200                   WEL =     3450670.9594     WEL_0           
                 DRN = 19841704729.8910                   DRN =    51309896.8201     DRN_0           
                 RCH =           0.0000                   RCH =           0.0000     RCH_0           

           TOTAL OUT = 31903490314.6586             TOTAL OUT =   106900454.6599

            IN - OUT =        7461.7911              IN - OUT =          -2.0378

 PERCENT DISCREPANCY =           0.00     PERCENT DISCREPANCY =          -0.00




         TIME SUMMARY AT END OF TIME STEP    1 IN STRESS PERIOD  463
                          TIME STEP LENGTH =    1.00000    
                        STRESS PERIOD TIME =    1.00000    
                     TOTAL SIMULATION TIME =    463.000    

end timestep


start timestep kper="464" kstp="1" mode="normal"


 OUTPUT CONTROL FOR STRESS PERIOD 464 IS REPEATED USING SETTINGS FROM A PREVIOUS STRESS PERIOD.


 STRESS PERIOD 464 IS TRANSIENT


 REUSING WELS FROM LAST STRESS PERIOD

 REUSING DRNS FROM LAST STRESS PERIOD

 REUSING RCHS FROM LAST STRESS PERIOD


  VOLUME BUDGET FOR ENTIRE MODEL AT END OF TIME STEP    1, STRESS PERIOD 464
  ---------------------------------------------------------------------------------------------------

     CUMULATIVE VOLUME      L**3       RATES FOR THIS TIME STEP      L**3/T          PACKAGE NAME    
     ------------------                 ------------------------                     ----------------

           IN:                                      IN:
           ---                                      ---
              STO-SS =           0.0000                STO-SS =           0.0000     STORAGE         
              STO-SY =  9212078401.5008                STO-SY =    13280082.9536     STORAGE         
                 WEL =           0.0000                   WEL =           0.0000     WEL_0           
                 DRN =           0.0000                   DRN =           0.0000     DRN_0           
                 RCH = 22749332976.9275                   RCH =    44633519.0250     RCH_0           

            TOTAL IN = 31961411378.4283              TOTAL IN =    57913601.9785

          OUT:                                     OUT:
          ----                                     ----
              STO-SS =           0.0000                STO-SS =           0.0000     STORAGE         
              STO-SY =  7092480487.5517                STO-SY =    12018593.6041     STORAGE         
                 WEL =  4987603949.8030                   WEL =     6280258.9830     WEL_0           
                 DRN = 19881319473.0232                   DRN =    39614743.1321     DRN_0           
                 RCH =           0.0000                   RCH =           0.0000     RCH_0           

           TOTAL OUT = 31961403910.3779             TOTAL OUT =    57913595.7192

            IN - OUT =        7468.0504              IN - OUT =           6.2593

 PERCENT DISCREPANCY =           0.00     PERCENT DISCREPANCY =           0.00




         TIME SUMMARY AT END OF TIME STEP    1 IN STRESS PERIOD  464
                          TIME STEP LENGTH =    1.00000    
                        STRESS PERIOD TIME =    1.00000    
                     TOTAL SIMULATION TIME =    464.000    

end timestep


start timestep kper="465" kstp="1" mode="normal"


 OUTPUT CONTROL FOR STRESS PERIOD 465 IS REPEATED USING SETTINGS FROM A PREVIOUS STRESS PERIOD.


 STRESS PERIOD 465 IS TRANSIENT


 REUSING WELS FROM LAST STRESS PERIOD

 REUSING DRNS FROM LAST STRESS PERIOD

 REUSING RCHS FROM LAST STRESS PERIOD


  VOLUME BUDGET FOR ENTIRE MODEL AT END OF TIME STEP    1, STRESS PERIOD 465
  ---------------------------------------------------------------------------------------------------

     CUMULATIVE VOLUME      L**3       RATES FOR THIS TIME STEP      L**3/T          PACKAGE NAME    
     ------------------                 ------------------------                     ----------------

           IN:                                      IN:
           ---                                      ---
              STO-SS =           0.0000                STO-SS =           0.0000     STORAGE         
              STO-SY =  9226822743.7807                STO-SY =    14744342.2799     STORAGE         
                 WEL =           0.0000                   WEL =           0.0000     WEL_0           
                 DRN =           0.0000                   DRN =           0.0000     DRN_0           
                 RCH = 22781943192.5671                   RCH =    32610215.6396     RCH_0           

            TOTAL IN = 32008765936.3478              TOTAL IN =    47354557.9195

          OUT:                                     OUT:
          ----                                     ----
              STO-SS =           0.0000                STO-SS =           0.0000     STORAGE         
              STO-SY =  7100310664.0565                STO-SY =     7830176.5048     STORAGE         
                 WEL =  4992319397.3102                   WEL =     4715447.5072     WEL_0           
                 DRN = 19916128415.5936                   DRN =    34808942.5704     DRN_0           
                 RCH =           0.0000                   RCH =           0.0000     RCH_0           

           TOTAL OUT = 32008758476.9602             TOTAL OUT =    47354566.5823

            IN - OUT =        7459.3876              IN - OUT =          -8.6628

 PERCENT DISCREPANCY =           0.00     PERCENT DISCREPANCY =          -0.00




         TIME SUMMARY AT END OF TIME STEP    1 IN STRESS PERIOD  465
                          TIME STEP LENGTH =    1.00000    
                        STRESS PERIOD TIME =    1.00000    
                     TOTAL SIMULATION TIME =    465.000    

end timestep


start timestep kper="466" kstp="1" mode="normal"


 OUTPUT CONTROL FOR STRESS PERIOD 466 IS REPEATED USING SETTINGS FROM A PREVIOUS STRESS PERIOD.


 STRESS PERIOD 466 IS TRANSIENT


 REUSING WELS FROM LAST STRESS PERIOD

 REUSING DRNS FROM LAST STRESS PERIOD

 REUSING RCHS FROM LAST STRESS PERIOD


  VOLUME BUDGET FOR ENTIRE MODEL AT END OF TIME STEP    1, STRESS PERIOD 466
  ---------------------------------------------------------------------------------------------------

     CUMULATIVE VOLUME      L**3       RATES FOR THIS TIME STEP      L**3/T          PACKAGE NAME    
     ------------------                 ------------------------                     ----------------

           IN:                                      IN:
           ---                                      ---
              STO-SS =           0.0000                STO-SS =           0.0000     STORAGE         
              STO-SY =  9237887927.9731                STO-SY =    11065184.1925     STORAGE         
                 WEL =           0.0000                   WEL =           0.0000     WEL_0           
                 DRN =           0.0000                   DRN =           0.0000     DRN_0           
                 RCH = 22823728130.8276                   RCH =    41784938.2604     RCH_0           

            TOTAL IN = 32061616058.8007              TOTAL IN =    52850122.4529

          OUT:                                     OUT:
          ----                                     ----
              STO-SS =           0.0000                STO-SS =           0.0000     STORAGE         
              STO-SY =  7110572908.8848                STO-SY =    10262244.8283     STORAGE         
                 WEL =  4997926099.7726                   WEL =     5606702.4624     WEL_0           
                 DRN = 19953109578.1146                   DRN =    36981162.5210     DRN_0           
                 RCH =           0.0000                   RCH =           0.0000     RCH_0           

           TOTAL OUT = 32061608586.7719             TOTAL OUT =    52850109.8117

            IN - OUT =        7472.0287              IN - OUT =          12.6412

 PERCENT DISCREPANCY =           0.00     PERCENT DISCREPANCY =           0.00




         TIME SUMMARY AT END OF TIME STEP    1 IN STRESS PERIOD  466
                          TIME STEP LENGTH =    1.00000    
                        STRESS PERIOD TIME =    1.00000    
                     TOTAL SIMULATION TIME =    466.000    

end timestep


start timestep kper="467" kstp="1" mode="normal"


 OUTPUT CONTROL FOR STRESS PERIOD 467 IS REPEATED USING SETTINGS FROM A PREVIOUS STRESS PERIOD.


 STRESS PERIOD 467 IS TRANSIENT


 REUSING WELS FROM LAST STRESS PERIOD

 REUSING DRNS FROM LAST STRESS PERIOD

 REUSING RCHS FROM LAST STRESS PERIOD


  VOLUME BUDGET FOR ENTIRE MODEL AT END OF TIME STEP    1, STRESS PERIOD 467
  ---------------------------------------------------------------------------------------------------

     CUMULATIVE VOLUME      L**3       RATES FOR THIS TIME STEP      L**3/T          PACKAGE NAME    
     ------------------                 ------------------------                     ----------------

           IN:                                      IN:
           ---                                      ---
              STO-SS =           0.0000                STO-SS =           0.0000     STORAGE         
              STO-SY =  9254060574.8875                STO-SY =    16172646.9144     STORAGE         
                 WEL =           0.0000                   WEL =           0.0000     WEL_0           
                 DRN =           0.0000                   DRN =           0.0000     DRN_0           
                 RCH = 22852834264.6321                   RCH =    29106133.8045     RCH_0           

            TOTAL IN = 32106894839.5196              TOTAL IN =    45278780.7189

          OUT:                                     OUT:
          ----                                     ----
              STO-SS =           0.0000                STO-SS =           0.0000     STORAGE         
              STO-SY =  7116057747.6962                STO-SY =     5484838.8114     STORAGE         
                 WEL =  5004395148.5272                   WEL =     6469048.7546     WEL_0           
                 DRN = 19986434472.4501                   DRN =    33324894.3355     DRN_0           
                 RCH =           0.0000                   RCH =           0.0000     RCH_0           

           TOTAL OUT = 32106887368.6735             TOTAL OUT =    45278781.9016

            IN - OUT =        7470.8461              IN - OUT =          -1.1826

 PERCENT DISCREPANCY =           0.00     PERCENT DISCREPANCY =          -0.00




         TIME SUMMARY AT END OF TIME STEP    1 IN STRESS PERIOD  467
                          TIME STEP LENGTH =    1.00000    
                        STRESS PERIOD TIME =    1.00000    
                     TOTAL SIMULATION TIME =    467.000    

end timestep


start timestep kper="468" kstp="1" mode="normal"


 OUTPUT CONTROL FOR STRESS PERIOD 468 IS REPEATED USING SETTINGS FROM A PREVIOUS STRESS PERIOD.


 STRESS PERIOD 468 IS TRANSIENT


 REUSING WELS FROM LAST STRESS PERIOD

 REUSING DRNS FROM LAST STRESS PERIOD

 REUSING RCHS FROM LAST STRESS PERIOD


  VOLUME BUDGET FOR ENTIRE MODEL AT END OF TIME STEP    1, STRESS PERIOD 468
  ---------------------------------------------------------------------------------------------------

     CUMULATIVE VOLUME      L**3       RATES FOR THIS TIME STEP      L**3/T          PACKAGE NAME    
     ------------------                 ------------------------                     ----------------

           IN:                                      IN:
           ---                                      ---
              STO-SS =           0.0000                STO-SS =           0.0000     STORAGE         
              STO-SY =  9256066929.1969                STO-SY =     2006354.3094     STORAGE         
                 WEL =           0.0000                   WEL =           0.0000     WEL_0           
                 DRN =           0.0000                   DRN =           0.0000     DRN_0           
                 RCH = 23001276142.3616                   RCH =   148441877.7295     RCH_0           

            TOTAL IN = 32257343071.5585              TOTAL IN =   150448232.0389

          OUT:                                     OUT:
          ----                                     ----
              STO-SS =           0.0000                STO-SS =           0.0000     STORAGE         
              STO-SY =  7207629472.5175                STO-SY =    91571724.8213     STORAGE         
                 WEL =  5008767805.2228                   WEL =     4372656.6956     WEL_0           
                 DRN = 20040938319.9340                   DRN =    54503847.4839     DRN_0           
                 RCH =           0.0000                   RCH =           0.0000     RCH_0           

           TOTAL OUT = 32257335597.6742             TOTAL OUT =   150448229.0007

            IN - OUT =        7473.8843              IN - OUT =           3.0382

 PERCENT DISCREPANCY =           0.00     PERCENT DISCREPANCY =           0.00




         TIME SUMMARY AT END OF TIME STEP    1 IN STRESS PERIOD  468
                          TIME STEP LENGTH =    1.00000    
                        STRESS PERIOD TIME =    1.00000    
                     TOTAL SIMULATION TIME =    468.000    

end timestep


start timestep kper="469" kstp="1" mode="normal"


 OUTPUT CONTROL FOR STRESS PERIOD 469 IS REPEATED USING SETTINGS FROM A PREVIOUS STRESS PERIOD.


 STRESS PERIOD 469 IS TRANSIENT


 REUSING WELS FROM LAST STRESS PERIOD

 REUSING DRNS FROM LAST STRESS PERIOD

 REUSING RCHS FROM LAST STRESS PERIOD


  VOLUME BUDGET FOR ENTIRE MODEL AT END OF TIME STEP    1, STRESS PERIOD 469
  ---------------------------------------------------------------------------------------------------

     CUMULATIVE VOLUME      L**3       RATES FOR THIS TIME STEP      L**3/T          PACKAGE NAME    
     ------------------                 ------------------------                     ----------------

           IN:                                      IN:
           ---                                      ---
              STO-SS =           0.0000                STO-SS =           0.0000     STORAGE         
              STO-SY =  9264253477.0428                STO-SY =     8186547.8459     STORAGE         
                 WEL =           0.0000                   WEL =           0.0000     WEL_0           
                 DRN =           0.0000                   DRN =           0.0000     DRN_0           
                 RCH = 23078593672.9701                   RCH =    77317530.6084     RCH_0           

            TOTAL IN = 32342847150.0129              TOTAL IN =    85504078.4544

          OUT:                                     OUT:
          ----                                     ----
              STO-SS =           0.0000                STO-SS =           0.0000     STORAGE         
              STO-SY =  7242357750.6123                STO-SY =    34728278.0949     STORAGE         
                 WEL =  5013399997.4588                   WEL =     4632192.2361     WEL_0           
                 DRN = 20087081927.9957                   DRN =    46143608.0617     DRN_0           
                 RCH =           0.0000                   RCH =           0.0000     RCH_0           

           TOTAL OUT = 32342839676.0669             TOTAL OUT =    85504078.3926

            IN - OUT =        7473.9460              IN - OUT =       6.1724E-02

 PERCENT DISCREPANCY =           0.00     PERCENT DISCREPANCY =           0.00




         TIME SUMMARY AT END OF TIME STEP    1 IN STRESS PERIOD  469
                          TIME STEP LENGTH =    1.00000    
                        STRESS PERIOD TIME =    1.00000    
                     TOTAL SIMULATION TIME =    469.000    

end timestep


start timestep kper="470" kstp="1" mode="normal"


 OUTPUT CONTROL FOR STRESS PERIOD 470 IS REPEATED USING SETTINGS FROM A PREVIOUS STRESS PERIOD.


 STRESS PERIOD 470 IS TRANSIENT


 REUSING WELS FROM LAST STRESS PERIOD

 REUSING DRNS FROM LAST STRESS PERIOD

 REUSING RCHS FROM LAST STRESS PERIOD


  VOLUME BUDGET FOR ENTIRE MODEL AT END OF TIME STEP    1, STRESS PERIOD 470
  ---------------------------------------------------------------------------------------------------

     CUMULATIVE VOLUME      L**3       RATES FOR THIS TIME STEP      L**3/T          PACKAGE NAME    
     ------------------                 ------------------------                     ----------------

           IN:                                      IN:
           ---                                      ---
              STO-SS =           0.0000                STO-SS =           0.0000     STORAGE         
              STO-SY =  9281629916.8761                STO-SY =    17376439.8333     STORAGE         
                 WEL =           0.0000                   WEL =           0.0000     WEL_0           
                 DRN =           0.0000                   DRN =           0.0000     DRN_0           
                 RCH = 23110568639.3713                   RCH =    31974966.4012     RCH_0           

            TOTAL IN = 32392198556.2474              TOTAL IN =    49351406.2345

          OUT:                                     OUT:
          ----                                     ----
              STO-SS =           0.0000                STO-SS =           0.0000     STORAGE         
              STO-SY =  7249368425.6642                STO-SY =     7010675.0519     STORAGE         
                 WEL =  5019014651.4335                   WEL =     5614653.9747     WEL_0           
                 DRN = 20123807993.1257                   DRN =    36726065.1300     DRN_0           
                 RCH =           0.0000                   RCH =           0.0000     RCH_0           

           TOTAL OUT = 32392191070.2234             TOTAL OUT =    49351394.1566

            IN - OUT =        7486.0240              IN - OUT =          12.0779

 PERCENT DISCREPANCY =           0.00     PERCENT DISCREPANCY =           0.00




         TIME SUMMARY AT END OF TIME STEP    1 IN STRESS PERIOD  470
                          TIME STEP LENGTH =    1.00000    
                        STRESS PERIOD TIME =    1.00000    
                     TOTAL SIMULATION TIME =    470.000    

end timestep


start timestep kper="471" kstp="1" mode="normal"


 OUTPUT CONTROL FOR STRESS PERIOD 471 IS REPEATED USING SETTINGS FROM A PREVIOUS STRESS PERIOD.


 STRESS PERIOD 471 IS TRANSIENT


 REUSING WELS FROM LAST STRESS PERIOD

 REUSING DRNS FROM LAST STRESS PERIOD

 REUSING RCHS FROM LAST STRESS PERIOD


  VOLUME BUDGET FOR ENTIRE MODEL AT END OF TIME STEP    1, STRESS PERIOD 471
  ---------------------------------------------------------------------------------------------------

     CUMULATIVE VOLUME      L**3       RATES FOR THIS TIME STEP      L**3/T          PACKAGE NAME    
     ------------------                 ------------------------                     ----------------

           IN:                                      IN:
           ---                                      ---
              STO-SS =           0.0000                STO-SS =           0.0000     STORAGE         
              STO-SY =  9298856976.3536                STO-SY =    17227059.4775     STORAGE         
                 WEL =           0.0000                   WEL =           0.0000     WEL_0           
                 DRN =           0.0000                   DRN =           0.0000     DRN_0           
                 RCH = 23138518774.0980                   RCH =    27950134.7267     RCH_0           

            TOTAL IN = 32437375750.4517              TOTAL IN =    45177194.2043

          OUT:                                     OUT:
          ----                                     ----
              STO-SS =           0.0000                STO-SS =           0.0000     STORAGE         
              STO-SY =  7254531553.0438                STO-SY =     5163127.3796     STORAGE         
                 WEL =  5025134482.4888                   WEL =     6119831.0552     WEL_0           
                 DRN = 20157702225.5790                   DRN =    33894232.4533     DRN_0           
                 RCH =           0.0000                   RCH =           0.0000     RCH_0           

           TOTAL OUT = 32437368261.1115             TOTAL OUT =    45177190.8881

            IN - OUT =        7489.3402              IN - OUT =           3.3162

 PERCENT DISCREPANCY =           0.00     PERCENT DISCREPANCY =           0.00




         TIME SUMMARY AT END OF TIME STEP    1 IN STRESS PERIOD  471
                          TIME STEP LENGTH =    1.00000    
                        STRESS PERIOD TIME =    1.00000    
                     TOTAL SIMULATION TIME =    471.000    

end timestep


start timestep kper="472" kstp="1" mode="normal"


 OUTPUT CONTROL FOR STRESS PERIOD 472 IS REPEATED USING SETTINGS FROM A PREVIOUS STRESS PERIOD.


 STRESS PERIOD 472 IS TRANSIENT


 REUSING WELS FROM LAST STRESS PERIOD

 REUSING DRNS FROM LAST STRESS PERIOD

 REUSING RCHS FROM LAST STRESS PERIOD


  VOLUME BUDGET FOR ENTIRE MODEL AT END OF TIME STEP    1, STRESS PERIOD 472
  ---------------------------------------------------------------------------------------------------

     CUMULATIVE VOLUME      L**3       RATES FOR THIS TIME STEP      L**3/T          PACKAGE NAME    
     ------------------                 ------------------------                     ----------------

           IN:                                      IN:
           ---                                      ---
              STO-SS =           0.0000                STO-SS =           0.0000     STORAGE         
              STO-SY =  9314559312.1300                STO-SY =    15702335.7763     STORAGE         
                 WEL =           0.0000                   WEL =           0.0000     WEL_0           
                 DRN =           0.0000                   DRN =           0.0000     DRN_0           
                 RCH = 23170489904.6498                   RCH =    31971130.5517     RCH_0           

            TOTAL IN = 32485049216.7797              TOTAL IN =    47673466.3280

          OUT:                                     OUT:
          ----                                     ----
              STO-SS =           0.0000                STO-SS =           0.0000     STORAGE         
              STO-SY =  7259869415.7582                STO-SY =     5337862.7145     STORAGE         
                 WEL =  5031926819.8616                   WEL =     6792337.3729     WEL_0           
                 DRN = 20193245483.6471                   DRN =    35543258.0681     DRN_0           
                 RCH =           0.0000                   RCH =           0.0000     RCH_0           

           TOTAL OUT = 32485041719.2670             TOTAL OUT =    47673458.1555

            IN - OUT =        7497.5127              IN - OUT =           8.1725

 PERCENT DISCREPANCY =           0.00     PERCENT DISCREPANCY =           0.00




         TIME SUMMARY AT END OF TIME STEP    1 IN STRESS PERIOD  472
                          TIME STEP LENGTH =    1.00000    
                        STRESS PERIOD TIME =    1.00000    
                     TOTAL SIMULATION TIME =    472.000    

end timestep


start timestep kper="473" kstp="1" mode="normal"


 OUTPUT CONTROL FOR STRESS PERIOD 473 IS REPEATED USING SETTINGS FROM A PREVIOUS STRESS PERIOD.


 STRESS PERIOD 473 IS TRANSIENT


 REUSING WELS FROM LAST STRESS PERIOD

 REUSING DRNS FROM LAST STRESS PERIOD

 REUSING RCHS FROM LAST STRESS PERIOD


  VOLUME BUDGET FOR ENTIRE MODEL AT END OF TIME STEP    1, STRESS PERIOD 473
  ---------------------------------------------------------------------------------------------------

     CUMULATIVE VOLUME      L**3       RATES FOR THIS TIME STEP      L**3/T          PACKAGE NAME    
     ------------------                 ------------------------                     ----------------

           IN:                                      IN:
           ---                                      ---
              STO-SS =           0.0000                STO-SS =           0.0000     STORAGE         
              STO-SY =  9331878764.2232                STO-SY =    17319452.0932     STORAGE         
                 WEL =           0.0000                   WEL =           0.0000     WEL_0           
                 DRN =           0.0000                   DRN =           0.0000     DRN_0           
                 RCH = 23198081513.2710                   RCH =    27591608.6213     RCH_0           

            TOTAL IN = 32529960277.4942              TOTAL IN =    44911060.7145

          OUT:                                     OUT:
          ----                                     ----
              STO-SS =           0.0000                STO-SS =           0.0000     STORAGE         
              STO-SY =  7264270752.5704                STO-SY =     4401336.8122     STORAGE         
                 WEL =  5039515220.0145                   WEL =     7588400.1529     WEL_0           
                 DRN = 20226166804.3643                   DRN =    32921320.7171     DRN_0           
                 RCH =           0.0000                   RCH =           0.0000     RCH_0           

           TOTAL OUT = 32529952776.9492             TOTAL OUT =    44911057.6822

            IN - OUT =        7500.5450              IN - OUT =           3.0323

 PERCENT DISCREPANCY =           0.00     PERCENT DISCREPANCY =           0.00




         TIME SUMMARY AT END OF TIME STEP    1 IN STRESS PERIOD  473
                          TIME STEP LENGTH =    1.00000    
                        STRESS PERIOD TIME =    1.00000    
                     TOTAL SIMULATION TIME =    473.000    

end timestep


start timestep kper="474" kstp="1" mode="normal"


 OUTPUT CONTROL FOR STRESS PERIOD 474 IS REPEATED USING SETTINGS FROM A PREVIOUS STRESS PERIOD.


 STRESS PERIOD 474 IS TRANSIENT


 REUSING WELS FROM LAST STRESS PERIOD

 REUSING DRNS FROM LAST STRESS PERIOD

 REUSING RCHS FROM LAST STRESS PERIOD


  VOLUME BUDGET FOR ENTIRE MODEL AT END OF TIME STEP    1, STRESS PERIOD 474
  ---------------------------------------------------------------------------------------------------

     CUMULATIVE VOLUME      L**3       RATES FOR THIS TIME STEP      L**3/T          PACKAGE NAME    
     ------------------                 ------------------------                     ----------------

           IN:                                      IN:
           ---                                      ---
              STO-SS =           0.0000                STO-SS =           0.0000     STORAGE         
              STO-SY =  9350538268.0112                STO-SY =    18659503.7881     STORAGE         
                 WEL =           0.0000                   WEL =           0.0000     WEL_0           
                 DRN =           0.0000                   DRN =           0.0000     DRN_0           
                 RCH = 23223467118.1536                   RCH =    25385604.8826     RCH_0           

            TOTAL IN = 32574005386.1648              TOTAL IN =    44045108.6706

          OUT:                                     OUT:
          ----                                     ----
              STO-SS =           0.0000                STO-SS =           0.0000     STORAGE         
              STO-SY =  7268306555.0729                STO-SY =     4035802.5025     STORAGE         
                 WEL =  5046587845.2476                   WEL =     7072625.2330     WEL_0           
                 DRN = 20259103490.0432                   DRN =    32936685.6790     DRN_0           
                 RCH =           0.0000                   RCH =           0.0000     RCH_0           

           TOTAL OUT = 32573997890.3637             TOTAL OUT =    44045113.4145

            IN - OUT =        7495.8011              IN - OUT =          -4.7439

 PERCENT DISCREPANCY =           0.00     PERCENT DISCREPANCY =          -0.00




         TIME SUMMARY AT END OF TIME STEP    1 IN STRESS PERIOD  474
                          TIME STEP LENGTH =    1.00000    
                        STRESS PERIOD TIME =    1.00000    
                     TOTAL SIMULATION TIME =    474.000    

end timestep


start timestep kper="475" kstp="1" mode="normal"


 OUTPUT CONTROL FOR STRESS PERIOD 475 IS REPEATED USING SETTINGS FROM A PREVIOUS STRESS PERIOD.


 STRESS PERIOD 475 IS TRANSIENT


 REUSING WELS FROM LAST STRESS PERIOD

 REUSING DRNS FROM LAST STRESS PERIOD

 REUSING RCHS FROM LAST STRESS PERIOD


  VOLUME BUDGET FOR ENTIRE MODEL AT END OF TIME STEP    1, STRESS PERIOD 475
  ---------------------------------------------------------------------------------------------------

     CUMULATIVE VOLUME      L**3       RATES FOR THIS TIME STEP      L**3/T          PACKAGE NAME    
     ------------------                 ------------------------                     ----------------

           IN:                                      IN:
           ---                                      ---
              STO-SS =           0.0000                STO-SS =           0.0000     STORAGE         
              STO-SY =  9369474579.4359                STO-SY =    18936311.4246     STORAGE         
                 WEL =           0.0000                   WEL =           0.0000     WEL_0           
                 DRN =           0.0000                   DRN =           0.0000     DRN_0           
                 RCH = 23245112528.9601                   RCH =    21645410.8065     RCH_0           

            TOTAL IN = 32614587108.3959              TOTAL IN =    40581722.2311

          OUT:                                     OUT:
          ----                                     ----
              STO-SS =           0.0000                STO-SS =           0.0000     STORAGE         
              STO-SY =  7271645486.1509                STO-SY =     3338931.0780     STORAGE         
                 WEL =  5052708815.5360                   WEL =     6120970.2884     WEL_0           
                 DRN = 20290225314.0949                   DRN =    31121824.0517     DRN_0           
                 RCH =           0.0000                   RCH =           0.0000     RCH_0           

           TOTAL OUT = 32614579615.7818             TOTAL OUT =    40581725.4181

            IN - OUT =        7492.6141              IN - OUT =          -3.1870

 PERCENT DISCREPANCY =           0.00     PERCENT DISCREPANCY =          -0.00




         TIME SUMMARY AT END OF TIME STEP    1 IN STRESS PERIOD  475
                          TIME STEP LENGTH =    1.00000    
                        STRESS PERIOD TIME =    1.00000    
                     TOTAL SIMULATION TIME =    475.000    

end timestep


start timestep kper="476" kstp="1" mode="normal"


 OUTPUT CONTROL FOR STRESS PERIOD 476 IS REPEATED USING SETTINGS FROM A PREVIOUS STRESS PERIOD.


 STRESS PERIOD 476 IS TRANSIENT


 REUSING WELS FROM LAST STRESS PERIOD

 REUSING DRNS FROM LAST STRESS PERIOD

 REUSING RCHS FROM LAST STRESS PERIOD


  VOLUME BUDGET FOR ENTIRE MODEL AT END OF TIME STEP    1, STRESS PERIOD 476
  ---------------------------------------------------------------------------------------------------

     CUMULATIVE VOLUME      L**3       RATES FOR THIS TIME STEP      L**3/T          PACKAGE NAME    
     ------------------                 ------------------------                     ----------------

           IN:                                      IN:
           ---                                      ---
              STO-SS =           0.0000                STO-SS =           0.0000     STORAGE         
              STO-SY =  9389139128.7367                STO-SY =    19664549.3008     STORAGE         
                 WEL =           0.0000                   WEL =           0.0000     WEL_0           
                 DRN =           0.0000                   DRN =           0.0000     DRN_0           
                 RCH = 23268758680.3247                   RCH =    23646151.3646     RCH_0           

            TOTAL IN = 32657897809.0614              TOTAL IN =    43310700.6654

          OUT:                                     OUT:
          ----                                     ----
              STO-SS =           0.0000                STO-SS =           0.0000     STORAGE         
              STO-SY =  7274932022.5752                STO-SY =     3286536.4242     STORAGE         
                 WEL =  5061108785.7444                   WEL =     8399970.2084     WEL_0           
                 DRN = 20321849506.2944                   DRN =    31624192.1994     DRN_0           
                 RCH =           0.0000                   RCH =           0.0000     RCH_0           

           TOTAL OUT = 32657890314.6139             TOTAL OUT =    43310698.8321

            IN - OUT =        7494.4474              IN - OUT =           1.8333

 PERCENT DISCREPANCY =           0.00     PERCENT DISCREPANCY =           0.00




         TIME SUMMARY AT END OF TIME STEP    1 IN STRESS PERIOD  476
                          TIME STEP LENGTH =    1.00000    
                        STRESS PERIOD TIME =    1.00000    
                     TOTAL SIMULATION TIME =    476.000    

end timestep


start timestep kper="477" kstp="1" mode="normal"


 OUTPUT CONTROL FOR STRESS PERIOD 477 IS REPEATED USING SETTINGS FROM A PREVIOUS STRESS PERIOD.


 STRESS PERIOD 477 IS TRANSIENT


 REUSING WELS FROM LAST STRESS PERIOD

 REUSING DRNS FROM LAST STRESS PERIOD

 REUSING RCHS FROM LAST STRESS PERIOD


  VOLUME BUDGET FOR ENTIRE MODEL AT END OF TIME STEP    1, STRESS PERIOD 477
  ---------------------------------------------------------------------------------------------------

     CUMULATIVE VOLUME      L**3       RATES FOR THIS TIME STEP      L**3/T          PACKAGE NAME    
     ------------------                 ------------------------                     ----------------

           IN:                                      IN:
           ---                                      ---
              STO-SS =           0.0000                STO-SS =           0.0000     STORAGE         
              STO-SY =  9407381103.8835                STO-SY =    18241975.1468     STORAGE         
                 WEL =           0.0000                   WEL =           0.0000     WEL_0           
                 DRN =           0.0000                   DRN =           0.0000     DRN_0           
                 RCH = 23295339422.2954                   RCH =    26580741.9707     RCH_0           

            TOTAL IN = 32702720526.1789              TOTAL IN =    44822717.1175

          OUT:                                     OUT:
          ----                                     ----
              STO-SS =           0.0000                STO-SS =           0.0000     STORAGE         
              STO-SY =  7278579802.1205                STO-SY =     3647779.5453     STORAGE         
                 WEL =  5071326432.8788                   WEL =    10217647.1344     WEL_0           
                 DRN = 20352806740.5113                   DRN =    30957234.2169     DRN_0           
                 RCH =           0.0000                   RCH =           0.0000     RCH_0           

           TOTAL OUT = 32702712975.5106             TOTAL OUT =    44822660.8966

            IN - OUT =        7550.6683              IN - OUT =          56.2208

 PERCENT DISCREPANCY =           0.00     PERCENT DISCREPANCY =           0.00




         TIME SUMMARY AT END OF TIME STEP    1 IN STRESS PERIOD  477
                          TIME STEP LENGTH =    1.00000    
                        STRESS PERIOD TIME =    1.00000    
                     TOTAL SIMULATION TIME =    477.000    

end timestep


start timestep kper="478" kstp="1" mode="normal"


 OUTPUT CONTROL FOR STRESS PERIOD 478 IS REPEATED USING SETTINGS FROM A PREVIOUS STRESS PERIOD.


 STRESS PERIOD 478 IS TRANSIENT


 REUSING WELS FROM LAST STRESS PERIOD

 REUSING DRNS FROM LAST STRESS PERIOD

 REUSING RCHS FROM LAST STRESS PERIOD


  VOLUME BUDGET FOR ENTIRE MODEL AT END OF TIME STEP    1, STRESS PERIOD 478
  ---------------------------------------------------------------------------------------------------

     CUMULATIVE VOLUME      L**3       RATES FOR THIS TIME STEP      L**3/T          PACKAGE NAME    
     ------------------                 ------------------------                     ----------------

           IN:                                      IN:
           ---                                      ---
              STO-SS =           0.0000                STO-SS =           0.0000     STORAGE         
              STO-SY =  9426860662.6961                STO-SY =    19479558.8126     STORAGE         
                 WEL =           0.0000                   WEL =           0.0000     WEL_0           
                 DRN =           0.0000                   DRN =           0.0000     DRN_0           
                 RCH = 23320590905.5956                   RCH =    25251483.3002     RCH_0           

            TOTAL IN = 32747451568.2917              TOTAL IN =    44731042.1128

          OUT:                                     OUT:
          ----                                     ----
              STO-SS =           0.0000                STO-SS =           0.0000     STORAGE         
              STO-SY =  7282614003.8946                STO-SY =     4034201.7741     STORAGE         
                 WEL =  5081268405.5296                   WEL =     9941972.6508     WEL_0           
                 DRN = 20383561604.7601                   DRN =    30754864.2488     DRN_0           
                 RCH =           0.0000                   RCH =           0.0000     RCH_0           

           TOTAL OUT = 32747444014.1843             TOTAL OUT =    44731038.6738

            IN - OUT =        7554.1074              IN - OUT =           3.4391

 PERCENT DISCREPANCY =           0.00     PERCENT DISCREPANCY =           0.00




         TIME SUMMARY AT END OF TIME STEP    1 IN STRESS PERIOD  478
                          TIME STEP LENGTH =    1.00000    
                        STRESS PERIOD TIME =    1.00000    
                     TOTAL SIMULATION TIME =    478.000    

end timestep


start timestep kper="479" kstp="1" mode="normal"


 OUTPUT CONTROL FOR STRESS PERIOD 479 IS REPEATED USING SETTINGS FROM A PREVIOUS STRESS PERIOD.


 STRESS PERIOD 479 IS TRANSIENT


 REUSING WELS FROM LAST STRESS PERIOD

 REUSING DRNS FROM LAST STRESS PERIOD

 REUSING RCHS FROM LAST STRESS PERIOD


  VOLUME BUDGET FOR ENTIRE MODEL AT END OF TIME STEP    1, STRESS PERIOD 479
  ---------------------------------------------------------------------------------------------------

     CUMULATIVE VOLUME      L**3       RATES FOR THIS TIME STEP      L**3/T          PACKAGE NAME    
     ------------------                 ------------------------                     ----------------

           IN:                                      IN:
           ---                                      ---
              STO-SS =           0.0000                STO-SS =           0.0000     STORAGE         
              STO-SY =  9444523836.3893                STO-SY =    17663173.6932     STORAGE         
                 WEL =           0.0000                   WEL =           0.0000     WEL_0           
                 DRN =           0.0000                   DRN =           0.0000     DRN_0           
                 RCH = 23345263707.0377                   RCH =    24672801.4421     RCH_0           

            TOTAL IN = 32789787543.4271              TOTAL IN =    42335975.1353

          OUT:                                     OUT:
          ----                                     ----
              STO-SS =           0.0000                STO-SS =           0.0000     STORAGE         
              STO-SY =  7287565951.4387                STO-SY =     4951947.5441     STORAGE         
                 WEL =  5088620042.9689                   WEL =     7351637.4393     WEL_0           
                 DRN = 20413593983.9435                   DRN =    30032379.1834     DRN_0           
                 RCH =           0.0000                   RCH =           0.0000     RCH_0           

           TOTAL OUT = 32789779978.3511             TOTAL OUT =    42335964.1667

            IN - OUT =        7565.0760              IN - OUT =          10.9686

 PERCENT DISCREPANCY =           0.00     PERCENT DISCREPANCY =           0.00




         TIME SUMMARY AT END OF TIME STEP    1 IN STRESS PERIOD  479
                          TIME STEP LENGTH =    1.00000    
                        STRESS PERIOD TIME =    1.00000    
                     TOTAL SIMULATION TIME =    479.000    

end timestep


start timestep kper="480" kstp="1" mode="normal"


 OUTPUT CONTROL FOR STRESS PERIOD 480 IS REPEATED USING SETTINGS FROM A PREVIOUS STRESS PERIOD.


 STRESS PERIOD 480 IS TRANSIENT


 REUSING WELS FROM LAST STRESS PERIOD

 REUSING DRNS FROM LAST STRESS PERIOD

 REUSING RCHS FROM LAST STRESS PERIOD


  VOLUME BUDGET FOR ENTIRE MODEL AT END OF TIME STEP    1, STRESS PERIOD 480
  ---------------------------------------------------------------------------------------------------

     CUMULATIVE VOLUME      L**3       RATES FOR THIS TIME STEP      L**3/T          PACKAGE NAME    
     ------------------                 ------------------------                     ----------------

           IN:                                      IN:
           ---                                      ---
              STO-SS =           0.0000                STO-SS =           0.0000     STORAGE         
              STO-SY =  9464007134.3492                STO-SY =    19483297.9599     STORAGE         
                 WEL =           0.0000                   WEL =           0.0000     WEL_0           
                 DRN =           0.0000                   DRN =           0.0000     DRN_0           
                 RCH = 23369199139.4921                   RCH =    23935432.4544     RCH_0           

            TOTAL IN = 32833206273.8413              TOTAL IN =    43418730.4143

          OUT:                                     OUT:
          ----                                     ----
              STO-SS =           0.0000                STO-SS =           0.0000     STORAGE         
              STO-SY =  7290929957.5078                STO-SY =     3364006.0691     STORAGE         
                 WEL =  5098563594.4261                   WEL =     9943551.4572     WEL_0           
                 DRN = 20443705156.5074                   DRN =    30111172.5639     DRN_0           
                 RCH =           0.0000                   RCH =           0.0000     RCH_0           

           TOTAL OUT = 32833198708.4413             TOTAL OUT =    43418730.0902

            IN - OUT =        7565.4000              IN - OUT =           0.3240

 PERCENT DISCREPANCY =           0.00     PERCENT DISCREPANCY =           0.00




         TIME SUMMARY AT END OF TIME STEP    1 IN STRESS PERIOD  480
                          TIME STEP LENGTH =    1.00000    
                        STRESS PERIOD TIME =    1.00000    
                     TOTAL SIMULATION TIME =    480.000    

end timestep


start timestep kper="481" kstp="1" mode="normal"


 OUTPUT CONTROL FOR STRESS PERIOD 481 IS REPEATED USING SETTINGS FROM A PREVIOUS STRESS PERIOD.


 STRESS PERIOD 481 IS TRANSIENT


 REUSING WELS FROM LAST STRESS PERIOD

 REUSING DRNS FROM LAST STRESS PERIOD

 REUSING RCHS FROM LAST STRESS PERIOD


  VOLUME BUDGET FOR ENTIRE MODEL AT END OF TIME STEP    1, STRESS PERIOD 481
  ---------------------------------------------------------------------------------------------------

     CUMULATIVE VOLUME      L**3       RATES FOR THIS TIME STEP      L**3/T          PACKAGE NAME    
     ------------------                 ------------------------                     ----------------

           IN:                                      IN:
           ---                                      ---
              STO-SS =           0.0000                STO-SS =           0.0000     STORAGE         
              STO-SY =  9491366494.3777                STO-SY =    27359360.0285     STORAGE         
                 WEL =           0.0000                   WEL =           0.0000     WEL_0           
                 DRN =           0.0000                   DRN =           0.0000     DRN_0           
                 RCH = 23393770835.2287                   RCH =    24571695.7366     RCH_0           

            TOTAL IN = 32885137329.6064              TOTAL IN =    51931055.7651

          OUT:                                     OUT:
          ----                                     ----
              STO-SS =           0.0000                STO-SS =           0.0000     STORAGE         
              STO-SY =  7295673277.2334                STO-SY =     4743319.7256     STORAGE         
                 WEL =  5117394201.0976                   WEL =    18830606.6715     WEL_0           
                 DRN = 20472062284.3293                   DRN =    28357127.8220     DRN_0           
                 RCH =           0.0000                   RCH =           0.0000     RCH_0           

           TOTAL OUT = 32885129762.6603             TOTAL OUT =    51931054.2190

            IN - OUT =        7566.9461              IN - OUT =           1.5461

 PERCENT DISCREPANCY =           0.00     PERCENT DISCREPANCY =           0.00




         TIME SUMMARY AT END OF TIME STEP    1 IN STRESS PERIOD  481
                          TIME STEP LENGTH =    1.00000    
                        STRESS PERIOD TIME =    1.00000    
                     TOTAL SIMULATION TIME =    481.000    

end timestep


start timestep kper="482" kstp="1" mode="normal"


 OUTPUT CONTROL FOR STRESS PERIOD 482 IS REPEATED USING SETTINGS FROM A PREVIOUS STRESS PERIOD.


 STRESS PERIOD 482 IS TRANSIENT


 REUSING WELS FROM LAST STRESS PERIOD

 REUSING DRNS FROM LAST STRESS PERIOD

 REUSING RCHS FROM LAST STRESS PERIOD


  VOLUME BUDGET FOR ENTIRE MODEL AT END OF TIME STEP    1, STRESS PERIOD 482
  ---------------------------------------------------------------------------------------------------

     CUMULATIVE VOLUME      L**3       RATES FOR THIS TIME STEP      L**3/T          PACKAGE NAME    
     ------------------                 ------------------------                     ----------------

           IN:                                      IN:
           ---                                      ---
              STO-SS =           0.0000                STO-SS =           0.0000     STORAGE         
              STO-SY =  9521518189.6063                STO-SY =    30151695.2286     STORAGE         
                 WEL =           0.0000                   WEL =           0.0000     WEL_0           
                 DRN =           0.0000                   DRN =           0.0000     DRN_0           
                 RCH = 23422068729.2390                   RCH =    28297894.0103     RCH_0           

            TOTAL IN = 32943586918.8453              TOTAL IN =    58449589.2389

          OUT:                                     OUT:
          ----                                     ----
              STO-SS =           0.0000                STO-SS =           0.0000     STORAGE         
              STO-SY =  7301524475.0627                STO-SY =     5851197.8293     STORAGE         
                 WEL =  5140576549.0563                   WEL =    23182347.9587     WEL_0           
                 DRN = 20501478321.5438                   DRN =    29416037.2145     DRN_0           
                 RCH =           0.0000                   RCH =           0.0000     RCH_0           

           TOTAL OUT = 32943579345.6629             TOTAL OUT =    58449583.0025

            IN - OUT =        7573.1824              IN - OUT =           6.2363

 PERCENT DISCREPANCY =           0.00     PERCENT DISCREPANCY =           0.00




         TIME SUMMARY AT END OF TIME STEP    1 IN STRESS PERIOD  482
                          TIME STEP LENGTH =    1.00000    
                        STRESS PERIOD TIME =    1.00000    
                     TOTAL SIMULATION TIME =    482.000    

end timestep


start timestep kper="483" kstp="1" mode="normal"


 OUTPUT CONTROL FOR STRESS PERIOD 483 IS REPEATED USING SETTINGS FROM A PREVIOUS STRESS PERIOD.


 STRESS PERIOD 483 IS TRANSIENT


 REUSING WELS FROM LAST STRESS PERIOD

 REUSING DRNS FROM LAST STRESS PERIOD

 REUSING RCHS FROM LAST STRESS PERIOD


  VOLUME BUDGET FOR ENTIRE MODEL AT END OF TIME STEP    1, STRESS PERIOD 483
  ---------------------------------------------------------------------------------------------------

     CUMULATIVE VOLUME      L**3       RATES FOR THIS TIME STEP      L**3/T          PACKAGE NAME    
     ------------------                 ------------------------                     ----------------

           IN:                                      IN:
           ---                                      ---
              STO-SS =           0.0000                STO-SS =           0.0000     STORAGE         
              STO-SY =  9545854472.3403                STO-SY =    24336282.7340     STORAGE         
                 WEL =           0.0000                   WEL =           0.0000     WEL_0           
                 DRN =           0.0000                   DRN =           0.0000     DRN_0           
                 RCH = 23440097658.3992                   RCH =    18028929.1602     RCH_0           

            TOTAL IN = 32985952130.7395              TOTAL IN =    42365211.8942

          OUT:                                     OUT:
          ----                                     ----
              STO-SS =           0.0000                STO-SS =           0.0000     STORAGE         
              STO-SY =  7303618782.7541                STO-SY =     2094307.6914     STORAGE         
                 WEL =  5154214195.3077                   WEL =    13637646.2514     WEL_0           
                 DRN = 20528111559.7577                   DRN =    26633238.2138     DRN_0           
                 RCH =           0.0000                   RCH =           0.0000     RCH_0           

           TOTAL OUT = 32985944537.8195             TOTAL OUT =    42365192.1566

            IN - OUT =        7592.9200              IN - OUT =          19.7376

 PERCENT DISCREPANCY =           0.00     PERCENT DISCREPANCY =           0.00




         TIME SUMMARY AT END OF TIME STEP    1 IN STRESS PERIOD  483
                          TIME STEP LENGTH =    1.00000    
                        STRESS PERIOD TIME =    1.00000    
                     TOTAL SIMULATION TIME =    483.000    

end timestep


start timestep kper="484" kstp="1" mode="normal"


 OUTPUT CONTROL FOR STRESS PERIOD 484 IS REPEATED USING SETTINGS FROM A PREVIOUS STRESS PERIOD.


 STRESS PERIOD 484 IS TRANSIENT


 REUSING WELS FROM LAST STRESS PERIOD

 REUSING DRNS FROM LAST STRESS PERIOD

 REUSING RCHS FROM LAST STRESS PERIOD


  VOLUME BUDGET FOR ENTIRE MODEL AT END OF TIME STEP    1, STRESS PERIOD 484
  ---------------------------------------------------------------------------------------------------

     CUMULATIVE VOLUME      L**3       RATES FOR THIS TIME STEP      L**3/T          PACKAGE NAME    
     ------------------                 ------------------------                     ----------------

           IN:                                      IN:
           ---                                      ---
              STO-SS =           0.0000                STO-SS =           0.0000     STORAGE         
              STO-SY =  9568682287.5156                STO-SY =    22827815.1753     STORAGE         
                 WEL =           0.0000                   WEL =           0.0000     WEL_0           
                 DRN =           0.0000                   DRN =           0.0000     DRN_0           
                 RCH = 23457086769.7547                   RCH =    16989111.3555     RCH_0           

            TOTAL IN = 33025769057.2703              TOTAL IN =    39816926.5308

          OUT:                                     OUT:
          ----                                     ----
              STO-SS =           0.0000                STO-SS =           0.0000     STORAGE         
              STO-SY =  7305984661.3614                STO-SY =     2365878.6074     STORAGE         
                 WEL =  5164437688.0945                   WEL =    10223492.7867     WEL_0           
                 DRN = 20555339106.1926                   DRN =    27227546.4349     DRN_0           
                 RCH =           0.0000                   RCH =           0.0000     RCH_0           

           TOTAL OUT = 33025761455.6485             TOTAL OUT =    39816917.8290

            IN - OUT =        7601.6218              IN - OUT =           8.7018

 PERCENT DISCREPANCY =           0.00     PERCENT DISCREPANCY =           0.00




         TIME SUMMARY AT END OF TIME STEP    1 IN STRESS PERIOD  484
                          TIME STEP LENGTH =    1.00000    
                        STRESS PERIOD TIME =    1.00000    
                     TOTAL SIMULATION TIME =    484.000    

end timestep


start timestep kper="485" kstp="1" mode="normal"


 OUTPUT CONTROL FOR STRESS PERIOD 485 IS REPEATED USING SETTINGS FROM A PREVIOUS STRESS PERIOD.


 STRESS PERIOD 485 IS TRANSIENT


 REUSING WELS FROM LAST STRESS PERIOD

 REUSING DRNS FROM LAST STRESS PERIOD

 REUSING RCHS FROM LAST STRESS PERIOD


  VOLUME BUDGET FOR ENTIRE MODEL AT END OF TIME STEP    1, STRESS PERIOD 485
  ---------------------------------------------------------------------------------------------------

     CUMULATIVE VOLUME      L**3       RATES FOR THIS TIME STEP      L**3/T          PACKAGE NAME    
     ------------------                 ------------------------                     ----------------

           IN:                                      IN:
           ---                                      ---
              STO-SS =           0.0000                STO-SS =           0.0000     STORAGE         
              STO-SY =  9593210988.1591                STO-SY =    24528700.6436     STORAGE         
                 WEL =           0.0000                   WEL =           0.0000     WEL_0           
                 DRN =           0.0000                   DRN =           0.0000     DRN_0           
                 RCH = 23474608753.7774                   RCH =    17521984.0227     RCH_0           

            TOTAL IN = 33067819741.9365              TOTAL IN =    42050684.6663

          OUT:                                     OUT:
          ----                                     ----
              STO-SS =           0.0000                STO-SS =           0.0000     STORAGE         
              STO-SY =  7308715553.2753                STO-SY =     2730891.9139     STORAGE         
                 WEL =  5178192534.1544                   WEL =    13754846.0599     WEL_0           
                 DRN = 20580904057.6785                   DRN =    25564951.4859     DRN_0           
                 RCH =           0.0000                   RCH =           0.0000     RCH_0           

           TOTAL OUT = 33067812145.1082             TOTAL OUT =    42050689.4597

            IN - OUT =        7596.8283              IN - OUT =          -4.7935

 PERCENT DISCREPANCY =           0.00     PERCENT DISCREPANCY =          -0.00




         TIME SUMMARY AT END OF TIME STEP    1 IN STRESS PERIOD  485
                          TIME STEP LENGTH =    1.00000    
                        STRESS PERIOD TIME =    1.00000    
                     TOTAL SIMULATION TIME =    485.000    

end timestep


start timestep kper="486" kstp="1" mode="normal"


 OUTPUT CONTROL FOR STRESS PERIOD 486 IS REPEATED USING SETTINGS FROM A PREVIOUS STRESS PERIOD.


 STRESS PERIOD 486 IS TRANSIENT


 REUSING WELS FROM LAST STRESS PERIOD

 REUSING DRNS FROM LAST STRESS PERIOD

 REUSING RCHS FROM LAST STRESS PERIOD


  VOLUME BUDGET FOR ENTIRE MODEL AT END OF TIME STEP    1, STRESS PERIOD 486
  ---------------------------------------------------------------------------------------------------

     CUMULATIVE VOLUME      L**3       RATES FOR THIS TIME STEP      L**3/T          PACKAGE NAME    
     ------------------                 ------------------------                     ----------------

           IN:                                      IN:
           ---                                      ---
              STO-SS =           0.0000                STO-SS =           0.0000     STORAGE         
              STO-SY =  9603486588.4922                STO-SY =    10275600.3331     STORAGE         
                 WEL =           0.0000                   WEL =           0.0000     WEL_0           
                 DRN =           0.0000                   DRN =           0.0000     DRN_0           
                 RCH = 23517721718.6968                   RCH =    43112964.9194     RCH_0           

            TOTAL IN = 33121208307.1890              TOTAL IN =    53388565.2525

          OUT:                                     OUT:
          ----                                     ----
              STO-SS =           0.0000                STO-SS =           0.0000     STORAGE         
              STO-SY =  7323396446.4181                STO-SY =    14680893.1428     STORAGE         
                 WEL =  5187228284.0652                   WEL =     9035749.9108     WEL_0           
                 DRN = 20610575977.4361                   DRN =    29671919.7575     DRN_0           
                 RCH =           0.0000                   RCH =           0.0000     RCH_0           

           TOTAL OUT = 33121200707.9194             TOTAL OUT =    53388562.8112

            IN - OUT =        7599.2696              IN - OUT =           2.4413

 PERCENT DISCREPANCY =           0.00     PERCENT DISCREPANCY =           0.00




         TIME SUMMARY AT END OF TIME STEP    1 IN STRESS PERIOD  486
                          TIME STEP LENGTH =    1.00000    
                        STRESS PERIOD TIME =    1.00000    
                     TOTAL SIMULATION TIME =    486.000    

end timestep


start timestep kper="487" kstp="1" mode="normal"


 OUTPUT CONTROL FOR STRESS PERIOD 487 IS REPEATED USING SETTINGS FROM A PREVIOUS STRESS PERIOD.


 STRESS PERIOD 487 IS TRANSIENT


 REUSING WELS FROM LAST STRESS PERIOD

 REUSING DRNS FROM LAST STRESS PERIOD

 REUSING RCHS FROM LAST STRESS PERIOD


  VOLUME BUDGET FOR ENTIRE MODEL AT END OF TIME STEP    1, STRESS PERIOD 487
  ---------------------------------------------------------------------------------------------------

     CUMULATIVE VOLUME      L**3       RATES FOR THIS TIME STEP      L**3/T          PACKAGE NAME    
     ------------------                 ------------------------                     ----------------

           IN:                                      IN:
           ---                                      ---
              STO-SS =           0.0000                STO-SS =           0.0000     STORAGE         
              STO-SY =  9632583527.4181                STO-SY =    29096938.9259     STORAGE         
                 WEL =           0.0000                   WEL =           0.0000     WEL_0           
                 DRN =           0.0000                   DRN =           0.0000     DRN_0           
                 RCH = 23551111006.7977                   RCH =    33389288.1008     RCH_0           

            TOTAL IN = 33183694534.2157              TOTAL IN =    62486227.0267

          OUT:                                     OUT:
          ----                                     ----
              STO-SS =           0.0000                STO-SS =           0.0000     STORAGE         
              STO-SY =  7330844837.5034                STO-SY =     7448391.0852     STORAGE         
                 WEL =  5214223450.9442                   WEL =    26995166.8790     WEL_0           
                 DRN = 20638618647.9140                   DRN =    28042670.4779     DRN_0           
                 RCH =           0.0000                   RCH =           0.0000     RCH_0           

           TOTAL OUT = 33183686936.3616             TOTAL OUT =    62486228.4422

            IN - OUT =        7597.8541              IN - OUT =          -1.4154

 PERCENT DISCREPANCY =           0.00     PERCENT DISCREPANCY =          -0.00




         TIME SUMMARY AT END OF TIME STEP    1 IN STRESS PERIOD  487
                          TIME STEP LENGTH =    1.00000    
                        STRESS PERIOD TIME =    1.00000    
                     TOTAL SIMULATION TIME =    487.000    

end timestep


start timestep kper="488" kstp="1" mode="normal"


 OUTPUT CONTROL FOR STRESS PERIOD 488 IS REPEATED USING SETTINGS FROM A PREVIOUS STRESS PERIOD.


 STRESS PERIOD 488 IS TRANSIENT


 REUSING WELS FROM LAST STRESS PERIOD

 REUSING DRNS FROM LAST STRESS PERIOD

 REUSING RCHS FROM LAST STRESS PERIOD


  VOLUME BUDGET FOR ENTIRE MODEL AT END OF TIME STEP    1, STRESS PERIOD 488
  ---------------------------------------------------------------------------------------------------

     CUMULATIVE VOLUME      L**3       RATES FOR THIS TIME STEP      L**3/T          PACKAGE NAME    
     ------------------                 ------------------------                     ----------------

           IN:                                      IN:
           ---                                      ---
              STO-SS =           0.0000                STO-SS =           0.0000     STORAGE         
              STO-SY =  9633728255.1250                STO-SY =     1144727.7069     STORAGE         
                 WEL =           0.0000                   WEL =           0.0000     WEL_0           
                 DRN =           0.0000                   DRN =           0.0000     DRN_0           
                 RCH = 23722206284.3826                   RCH =   171095277.5850     RCH_0           

            TOTAL IN = 33355934539.5076              TOTAL IN =   172240005.2919

          OUT:                                     OUT:
          ----                                     ----
              STO-SS =           0.0000                STO-SS =           0.0000     STORAGE         
              STO-SY =  7439450380.6296                STO-SY =   108605543.1263     STORAGE         
                 WEL =  5219553068.5574                   WEL =     5329617.6132     WEL_0           
                 DRN = 20696923492.4460                   DRN =    58304844.5319     DRN_0           
                 RCH =           0.0000                   RCH =           0.0000     RCH_0           

           TOTAL OUT = 33355926941.6330             TOTAL OUT =   172240005.2714

            IN - OUT =        7597.8746              IN - OUT =       2.0489E-02

 PERCENT DISCREPANCY =           0.00     PERCENT DISCREPANCY =           0.00




         TIME SUMMARY AT END OF TIME STEP    1 IN STRESS PERIOD  488
                          TIME STEP LENGTH =    1.00000    
                        STRESS PERIOD TIME =    1.00000    
                     TOTAL SIMULATION TIME =    488.000    

end timestep


start timestep kper="489" kstp="1" mode="normal"


 OUTPUT CONTROL FOR STRESS PERIOD 489 IS REPEATED USING SETTINGS FROM A PREVIOUS STRESS PERIOD.


 STRESS PERIOD 489 IS TRANSIENT


 REUSING WELS FROM LAST STRESS PERIOD

 REUSING DRNS FROM LAST STRESS PERIOD

 REUSING RCHS FROM LAST STRESS PERIOD


  VOLUME BUDGET FOR ENTIRE MODEL AT END OF TIME STEP    1, STRESS PERIOD 489
  ---------------------------------------------------------------------------------------------------

     CUMULATIVE VOLUME      L**3       RATES FOR THIS TIME STEP      L**3/T          PACKAGE NAME    
     ------------------                 ------------------------                     ----------------

           IN:                                      IN:
           ---                                      ---
              STO-SS =           0.0000                STO-SS =           0.0000     STORAGE         
              STO-SY =  9636951363.7778                STO-SY =     3223108.6528     STORAGE         
                 WEL =           0.0000                   WEL =           0.0000     WEL_0           
                 DRN =           0.0000                   DRN =           0.0000     DRN_0           
                 RCH = 24025315875.0980                   RCH =   303109590.7154     RCH_0           

            TOTAL IN = 33662267238.8758              TOTAL IN =   306332699.3682

          OUT:                                     OUT:
          ----                                     ----
              STO-SS =           0.0000                STO-SS =           0.0000     STORAGE         
              STO-SY =  7675192806.2153                STO-SY =   235742425.5856     STORAGE         
                 WEL =  5222372534.0485                   WEL =     2819465.4910     WEL_0           
                 DRN = 20764694300.5847                   DRN =    67770808.1388     DRN_0           
                 RCH =           0.0000                   RCH =           0.0000     RCH_0           

           TOTAL OUT = 33662259640.8484             TOTAL OUT =   306332699.2154

            IN - OUT =        7598.0274              IN - OUT =           0.1527

 PERCENT DISCREPANCY =           0.00     PERCENT DISCREPANCY =           0.00




         TIME SUMMARY AT END OF TIME STEP    1 IN STRESS PERIOD  489
                          TIME STEP LENGTH =    1.00000    
                        STRESS PERIOD TIME =    1.00000    
                     TOTAL SIMULATION TIME =    489.000    

end timestep


start timestep kper="490" kstp="1" mode="normal"


 OUTPUT CONTROL FOR STRESS PERIOD 490 IS REPEATED USING SETTINGS FROM A PREVIOUS STRESS PERIOD.


 STRESS PERIOD 490 IS TRANSIENT


 REUSING WELS FROM LAST STRESS PERIOD

 REUSING DRNS FROM LAST STRESS PERIOD

 REUSING RCHS FROM LAST STRESS PERIOD


  VOLUME BUDGET FOR ENTIRE MODEL AT END OF TIME STEP    1, STRESS PERIOD 490
  ---------------------------------------------------------------------------------------------------

     CUMULATIVE VOLUME      L**3       RATES FOR THIS TIME STEP      L**3/T          PACKAGE NAME    
     ------------------                 ------------------------                     ----------------

           IN:                                      IN:
           ---                                      ---
              STO-SS =           0.0000                STO-SS =           0.0000     STORAGE         
              STO-SY =  9643732822.5928                STO-SY =     6781458.8149     STORAGE         
                 WEL =           0.0000                   WEL =           0.0000     WEL_0           
                 DRN =           0.0000                   DRN =           0.0000     DRN_0           
                 RCH = 24116728234.9569                   RCH =    91412359.8590     RCH_0           

            TOTAL IN = 33760461057.5497              TOTAL IN =    98193818.6739

          OUT:                                     OUT:
          ----                                     ----
              STO-SS =           0.0000                STO-SS =           0.0000     STORAGE         
              STO-SY =  7727298333.2796                STO-SY =    52105527.0643     STORAGE         
                 WEL =  5226000355.6045                   WEL =     3627821.5560     WEL_0           
                 DRN = 20807154763.2536                   DRN =    42460462.6689     DRN_0           
                 RCH =           0.0000                   RCH =           0.0000     RCH_0           

           TOTAL OUT = 33760453452.1377             TOTAL OUT =    98193811.2893

            IN - OUT =        7605.4120              IN - OUT =           7.3847

 PERCENT DISCREPANCY =           0.00     PERCENT DISCREPANCY =           0.00




         TIME SUMMARY AT END OF TIME STEP    1 IN STRESS PERIOD  490
                          TIME STEP LENGTH =    1.00000    
                        STRESS PERIOD TIME =    1.00000    
                     TOTAL SIMULATION TIME =    490.000    

end timestep


start timestep kper="491" kstp="1" mode="normal"


 OUTPUT CONTROL FOR STRESS PERIOD 491 IS REPEATED USING SETTINGS FROM A PREVIOUS STRESS PERIOD.


 STRESS PERIOD 491 IS TRANSIENT


 REUSING WELS FROM LAST STRESS PERIOD

 REUSING DRNS FROM LAST STRESS PERIOD

 REUSING RCHS FROM LAST STRESS PERIOD


  VOLUME BUDGET FOR ENTIRE MODEL AT END OF TIME STEP    1, STRESS PERIOD 491
  ---------------------------------------------------------------------------------------------------

     CUMULATIVE VOLUME      L**3       RATES FOR THIS TIME STEP      L**3/T          PACKAGE NAME    
     ------------------                 ------------------------                     ----------------

           IN:                                      IN:
           ---                                      ---
              STO-SS =           0.0000                STO-SS =           0.0000     STORAGE         
              STO-SY =  9648313973.9768                STO-SY =     4581151.3840     STORAGE         
                 WEL =           0.0000                   WEL =           0.0000     WEL_0           
                 DRN =           0.0000                   DRN =           0.0000     DRN_0           
                 RCH = 24198559667.5599                   RCH =    81831432.6030     RCH_0           

            TOTAL IN = 33846873641.5367              TOTAL IN =    86412583.9870

          OUT:                                     OUT:
          ----                                     ----
              STO-SS =           0.0000                STO-SS =           0.0000     STORAGE         
              STO-SY =  7768789012.1208                STO-SY =    41490678.8412     STORAGE         
                 WEL =  5229432254.9961                   WEL =     3431899.3916     WEL_0           
                 DRN = 20848644765.6600                   DRN =    41490002.4064     DRN_0           
                 RCH =           0.0000                   RCH =           0.0000     RCH_0           

           TOTAL OUT = 33846866032.7768             TOTAL OUT =    86412580.6391

            IN - OUT =        7608.7599              IN - OUT =           3.3478

 PERCENT DISCREPANCY =           0.00     PERCENT DISCREPANCY =           0.00




         TIME SUMMARY AT END OF TIME STEP    1 IN STRESS PERIOD  491
                          TIME STEP LENGTH =    1.00000    
                        STRESS PERIOD TIME =    1.00000    
                     TOTAL SIMULATION TIME =    491.000    

end timestep


start timestep kper="492" kstp="1" mode="normal"


 OUTPUT CONTROL FOR STRESS PERIOD 492 IS REPEATED USING SETTINGS FROM A PREVIOUS STRESS PERIOD.


 STRESS PERIOD 492 IS TRANSIENT


 REUSING WELS FROM LAST STRESS PERIOD

 REUSING DRNS FROM LAST STRESS PERIOD

 REUSING RCHS FROM LAST STRESS PERIOD


  VOLUME BUDGET FOR ENTIRE MODEL AT END OF TIME STEP    1, STRESS PERIOD 492
  ---------------------------------------------------------------------------------------------------

     CUMULATIVE VOLUME      L**3       RATES FOR THIS TIME STEP      L**3/T          PACKAGE NAME    
     ------------------                 ------------------------                     ----------------

           IN:                                      IN:
           ---                                      ---
              STO-SS =           0.0000                STO-SS =           0.0000     STORAGE         
              STO-SY =  9651639741.1461                STO-SY =     3325767.1694     STORAGE         
                 WEL =           0.0000                   WEL =           0.0000     WEL_0           
                 DRN =           0.0000                   DRN =           0.0000     DRN_0           
                 RCH = 24388431241.5766                   RCH =   189871574.0167     RCH_0           

            TOTAL IN = 34040070982.7228              TOTAL IN =   193197341.1861

          OUT:                                     OUT:
          ----                                     ----
              STO-SS =           0.0000                STO-SS =           0.0000     STORAGE         
              STO-SY =  7881711552.1250                STO-SY =   112922540.0042     STORAGE         
                 WEL =  5232863629.2522                   WEL =     3431374.2561     WEL_0           
                 DRN = 20925488190.0601                   DRN =    76843424.4001     DRN_0           
                 RCH =           0.0000                   RCH =           0.0000     RCH_0           

           TOTAL OUT = 34040063371.4372             TOTAL OUT =   193197338.6604

            IN - OUT =        7611.2856              IN - OUT =           2.5257

 PERCENT DISCREPANCY =           0.00     PERCENT DISCREPANCY =           0.00




         TIME SUMMARY AT END OF TIME STEP    1 IN STRESS PERIOD  492
                          TIME STEP LENGTH =    1.00000    
                        STRESS PERIOD TIME =    1.00000    
                     TOTAL SIMULATION TIME =    492.000    

end timestep


start timestep kper="493" kstp="1" mode="normal"


 OUTPUT CONTROL FOR STRESS PERIOD 493 IS REPEATED USING SETTINGS FROM A PREVIOUS STRESS PERIOD.


 STRESS PERIOD 493 IS TRANSIENT


 REUSING WELS FROM LAST STRESS PERIOD

 REUSING DRNS FROM LAST STRESS PERIOD

 REUSING RCHS FROM LAST STRESS PERIOD


  VOLUME BUDGET FOR ENTIRE MODEL AT END OF TIME STEP    1, STRESS PERIOD 493
  ---------------------------------------------------------------------------------------------------

     CUMULATIVE VOLUME      L**3       RATES FOR THIS TIME STEP      L**3/T          PACKAGE NAME    
     ------------------                 ------------------------                     ----------------

           IN:                                      IN:
           ---                                      ---
              STO-SS =           0.0000                STO-SS =           0.0000     STORAGE         
              STO-SY =  9658398353.6327                STO-SY =     6758612.4866     STORAGE         
                 WEL =           0.0000                   WEL =           0.0000     WEL_0           
                 DRN =           0.0000                   DRN =           0.0000     DRN_0           
                 RCH = 24488622003.2945                   RCH =   100190761.7179     RCH_0           

            TOTAL IN = 34147020356.9272              TOTAL IN =   106949374.2044

          OUT:                                     OUT:
          ----                                     ----
              STO-SS =           0.0000                STO-SS =           0.0000     STORAGE         
              STO-SY =  7936442186.5408                STO-SY =    54730634.4158     STORAGE         
                 WEL =  5236032068.9517                   WEL =     3168439.6995     WEL_0           
                 DRN = 20974538485.2986                   DRN =    49050295.2385     DRN_0           
                 RCH =           0.0000                   RCH =           0.0000     RCH_0           

           TOTAL OUT = 34147012740.7911             TOTAL OUT =   106949369.3539

            IN - OUT =        7616.1361              IN - OUT =           4.8506

 PERCENT DISCREPANCY =           0.00     PERCENT DISCREPANCY =           0.00




         TIME SUMMARY AT END OF TIME STEP    1 IN STRESS PERIOD  493
                          TIME STEP LENGTH =    1.00000    
                        STRESS PERIOD TIME =    1.00000    
                     TOTAL SIMULATION TIME =    493.000    

end timestep


start timestep kper="494" kstp="1" mode="normal"


 OUTPUT CONTROL FOR STRESS PERIOD 494 IS REPEATED USING SETTINGS FROM A PREVIOUS STRESS PERIOD.


 STRESS PERIOD 494 IS TRANSIENT


 REUSING WELS FROM LAST STRESS PERIOD

 REUSING DRNS FROM LAST STRESS PERIOD

 REUSING RCHS FROM LAST STRESS PERIOD


  VOLUME BUDGET FOR ENTIRE MODEL AT END OF TIME STEP    1, STRESS PERIOD 494
  ---------------------------------------------------------------------------------------------------

     CUMULATIVE VOLUME      L**3       RATES FOR THIS TIME STEP      L**3/T          PACKAGE NAME    
     ------------------                 ------------------------                     ----------------

           IN:                                      IN:
           ---                                      ---
              STO-SS =           0.0000                STO-SS =           0.0000     STORAGE         
              STO-SY =  9661555206.8671                STO-SY =     3156853.2344     STORAGE         
                 WEL =           0.0000                   WEL =           0.0000     WEL_0           
                 DRN =           0.0000                   DRN =           0.0000     DRN_0           
                 RCH = 24688193326.3545                   RCH =   199571323.0600     RCH_0           

            TOTAL IN = 34349748533.2216              TOTAL IN =   202728176.2944

          OUT:                                     OUT:
          ----                                     ----
              STO-SS =           0.0000                STO-SS =           0.0000     STORAGE         
              STO-SY =  8061685698.7422                STO-SY =   125243512.2014     STORAGE         
                 WEL =  5239008269.8376                   WEL =     2976200.8859     WEL_0           
                 DRN = 21049046948.9161                   DRN =    74508463.6175     DRN_0           
                 RCH =           0.0000                   RCH =           0.0000     RCH_0           

           TOTAL OUT = 34349740917.4959             TOTAL OUT =   202728176.7048

            IN - OUT =        7615.7257              IN - OUT =          -0.4104

 PERCENT DISCREPANCY =           0.00     PERCENT DISCREPANCY =          -0.00




         TIME SUMMARY AT END OF TIME STEP    1 IN STRESS PERIOD  494
                          TIME STEP LENGTH =    1.00000    
                        STRESS PERIOD TIME =    1.00000    
                     TOTAL SIMULATION TIME =    494.000    

end timestep


start timestep kper="495" kstp="1" mode="normal"


 OUTPUT CONTROL FOR STRESS PERIOD 495 IS REPEATED USING SETTINGS FROM A PREVIOUS STRESS PERIOD.


 STRESS PERIOD 495 IS TRANSIENT


 REUSING WELS FROM LAST STRESS PERIOD

 REUSING DRNS FROM LAST STRESS PERIOD

 REUSING RCHS FROM LAST STRESS PERIOD


  VOLUME BUDGET FOR ENTIRE MODEL AT END OF TIME STEP    1, STRESS PERIOD 495
  ---------------------------------------------------------------------------------------------------

     CUMULATIVE VOLUME      L**3       RATES FOR THIS TIME STEP      L**3/T          PACKAGE NAME    
     ------------------                 ------------------------                     ----------------

           IN:                                      IN:
           ---                                      ---
              STO-SS =           0.0000                STO-SS =           0.0000     STORAGE         
              STO-SY =  9669340410.7043                STO-SY =     7785203.8372     STORAGE         
                 WEL =           0.0000                   WEL =           0.0000     WEL_0           
                 DRN =           0.0000                   DRN =           0.0000     DRN_0           
                 RCH = 24831487442.1976                   RCH =   143294115.8431     RCH_0           

            TOTAL IN = 34500827852.9019              TOTAL IN =   151079319.6804

          OUT:                                     OUT:
          ----                                     ----
              STO-SS =           0.0000                STO-SS =           0.0000     STORAGE         
              STO-SY =  8151622665.7333                STO-SY =    89936966.9911     STORAGE         
                 WEL =  5242081763.8444                   WEL =     3073494.0068     WEL_0           
                 DRN = 21107115786.6710                   DRN =    58068837.7549     DRN_0           
                 RCH =           0.0000                   RCH =           0.0000     RCH_0           

           TOTAL OUT = 34500820216.2487             TOTAL OUT =   151079298.7528

            IN - OUT =        7636.6532              IN - OUT =          20.9275

 PERCENT DISCREPANCY =           0.00     PERCENT DISCREPANCY =           0.00




         TIME SUMMARY AT END OF TIME STEP    1 IN STRESS PERIOD  495
                          TIME STEP LENGTH =    1.00000    
                        STRESS PERIOD TIME =    1.00000    
                     TOTAL SIMULATION TIME =    495.000    

end timestep


start timestep kper="496" kstp="1" mode="normal"


 OUTPUT CONTROL FOR STRESS PERIOD 496 IS REPEATED USING SETTINGS FROM A PREVIOUS STRESS PERIOD.


 STRESS PERIOD 496 IS TRANSIENT


 REUSING WELS FROM LAST STRESS PERIOD

 REUSING DRNS FROM LAST STRESS PERIOD

 REUSING RCHS FROM LAST STRESS PERIOD


  VOLUME BUDGET FOR ENTIRE MODEL AT END OF TIME STEP    1, STRESS PERIOD 496
  ---------------------------------------------------------------------------------------------------

     CUMULATIVE VOLUME      L**3       RATES FOR THIS TIME STEP      L**3/T          PACKAGE NAME    
     ------------------                 ------------------------                     ----------------

           IN:                                      IN:
           ---                                      ---
              STO-SS =           0.0000                STO-SS =           0.0000     STORAGE         
              STO-SY =  9682040644.6938                STO-SY =    12700233.9895     STORAGE         
                 WEL =           0.0000                   WEL =           0.0000     WEL_0           
                 DRN =           0.0000                   DRN =           0.0000     DRN_0           
                 RCH = 24892777882.3826                   RCH =    61290440.1850     RCH_0           

            TOTAL IN = 34574818527.0764              TOTAL IN =    73990674.1744

          OUT:                                     OUT:
          ----                                     ----
              STO-SS =           0.0000                STO-SS =           0.0000     STORAGE         
              STO-SY =  8171342677.8257                STO-SY =    19720012.0924     STORAGE         
                 WEL =  5245846453.1881                   WEL =     3764689.3437     WEL_0           
                 DRN = 21157621731.0378                   DRN =    50505944.3667     DRN_0           
                 RCH =           0.0000                   RCH =           0.0000     RCH_0           

           TOTAL OUT = 34574810862.0516             TOTAL OUT =    73990645.8029

            IN - OUT =        7665.0248              IN - OUT =          28.3716

 PERCENT DISCREPANCY =           0.00     PERCENT DISCREPANCY =           0.00




         TIME SUMMARY AT END OF TIME STEP    1 IN STRESS PERIOD  496
                          TIME STEP LENGTH =    1.00000    
                        STRESS PERIOD TIME =    1.00000    
                     TOTAL SIMULATION TIME =    496.000    

end timestep


start timestep kper="497" kstp="1" mode="normal"


 OUTPUT CONTROL FOR STRESS PERIOD 497 IS REPEATED USING SETTINGS FROM A PREVIOUS STRESS PERIOD.


 STRESS PERIOD 497 IS TRANSIENT


 REUSING WELS FROM LAST STRESS PERIOD

 REUSING DRNS FROM LAST STRESS PERIOD

 REUSING RCHS FROM LAST STRESS PERIOD


  VOLUME BUDGET FOR ENTIRE MODEL AT END OF TIME STEP    1, STRESS PERIOD 497
  ---------------------------------------------------------------------------------------------------

     CUMULATIVE VOLUME      L**3       RATES FOR THIS TIME STEP      L**3/T          PACKAGE NAME    
     ------------------                 ------------------------                     ----------------

           IN:                                      IN:
           ---                                      ---
              STO-SS =           0.0000                STO-SS =           0.0000     STORAGE         
              STO-SY =  9698410419.8294                STO-SY =    16369775.1356     STORAGE         
                 WEL =           0.0000                   WEL =           0.0000     WEL_0           
                 DRN =           0.0000                   DRN =           0.0000     DRN_0           
                 RCH = 24932329897.3217                   RCH =    39552014.9391     RCH_0           

            TOTAL IN = 34630740317.1511              TOTAL IN =    55921790.0747

          OUT:                                     OUT:
          ----                                     ----
              STO-SS =           0.0000                STO-SS =           0.0000     STORAGE         
              STO-SY =  8179893744.2360                STO-SY =     8551066.4102     STORAGE         
                 WEL =  5250095974.1543                   WEL =     4249520.9662     WEL_0           
                 DRN = 21200742898.8339                   DRN =    43121167.7961     DRN_0           
                 RCH =           0.0000                   RCH =           0.0000     RCH_0           

           TOTAL OUT = 34630732617.2242             TOTAL OUT =    55921755.1726

            IN - OUT =        7699.9269              IN - OUT =          34.9021

 PERCENT DISCREPANCY =           0.00     PERCENT DISCREPANCY =           0.00




         TIME SUMMARY AT END OF TIME STEP    1 IN STRESS PERIOD  497
                          TIME STEP LENGTH =    1.00000    
                        STRESS PERIOD TIME =    1.00000    
                     TOTAL SIMULATION TIME =    497.000    

end timestep


start timestep kper="498" kstp="1" mode="normal"


 OUTPUT CONTROL FOR STRESS PERIOD 498 IS REPEATED USING SETTINGS FROM A PREVIOUS STRESS PERIOD.


 STRESS PERIOD 498 IS TRANSIENT


 REUSING WELS FROM LAST STRESS PERIOD

 REUSING DRNS FROM LAST STRESS PERIOD

 REUSING RCHS FROM LAST STRESS PERIOD


  VOLUME BUDGET FOR ENTIRE MODEL AT END OF TIME STEP    1, STRESS PERIOD 498
  ---------------------------------------------------------------------------------------------------

     CUMULATIVE VOLUME      L**3       RATES FOR THIS TIME STEP      L**3/T          PACKAGE NAME    
     ------------------                 ------------------------                     ----------------

           IN:                                      IN:
           ---                                      ---
              STO-SS =           0.0000                STO-SS =           0.0000     STORAGE         
              STO-SY =  9711369180.9016                STO-SY =    12958761.0722     STORAGE         
                 WEL =           0.0000                   WEL =           0.0000     WEL_0           
                 DRN =           0.0000                   DRN =           0.0000     DRN_0           
                 RCH = 24984647882.9046                   RCH =    52317985.5830     RCH_0           

            TOTAL IN = 34696017063.8062              TOTAL IN =    65276746.6552

          OUT:                                     OUT:
          ----                                     ----
              STO-SS =           0.0000                STO-SS =           0.0000     STORAGE         
              STO-SY =  8190603563.4025                STO-SY =    10709819.1666     STORAGE         
                 WEL =  5255176851.6443                   WEL =     5080877.4900     WEL_0           
                 DRN = 21250228948.7069                   DRN =    49486049.8730     DRN_0           
                 RCH =           0.0000                   RCH =           0.0000     RCH_0           

           TOTAL OUT = 34696009363.7538             TOTAL OUT =    65276746.5296

            IN - OUT =        7700.0525              IN - OUT =           0.1256

 PERCENT DISCREPANCY =           0.00     PERCENT DISCREPANCY =           0.00




         TIME SUMMARY AT END OF TIME STEP    1 IN STRESS PERIOD  498
                          TIME STEP LENGTH =    1.00000    
                        STRESS PERIOD TIME =    1.00000    
                     TOTAL SIMULATION TIME =    498.000    

end timestep


start timestep kper="499" kstp="1" mode="normal"


 OUTPUT CONTROL FOR STRESS PERIOD 499 IS REPEATED USING SETTINGS FROM A PREVIOUS STRESS PERIOD.


 STRESS PERIOD 499 IS TRANSIENT


 REUSING WELS FROM LAST STRESS PERIOD

 REUSING DRNS FROM LAST STRESS PERIOD

 REUSING RCHS FROM LAST STRESS PERIOD


  VOLUME BUDGET FOR ENTIRE MODEL AT END OF TIME STEP    1, STRESS PERIOD 499
  ---------------------------------------------------------------------------------------------------

     CUMULATIVE VOLUME      L**3       RATES FOR THIS TIME STEP      L**3/T          PACKAGE NAME    
     ------------------                 ------------------------                     ----------------

           IN:                                      IN:
           ---                                      ---
              STO-SS =           0.0000                STO-SS =           0.0000     STORAGE         
              STO-SY =  9730845182.4434                STO-SY =    19476001.5418     STORAGE         
                 WEL =           0.0000                   WEL =           0.0000     WEL_0           
                 DRN =           0.0000                   DRN =           0.0000     DRN_0           
                 RCH = 25016794046.9152                   RCH =    32146164.0106     RCH_0           

            TOTAL IN = 34747639229.3586              TOTAL IN =    51622165.5524

          OUT:                                     OUT:
          ----                                     ----
              STO-SS =           0.0000                STO-SS =           0.0000     STORAGE         
              STO-SY =  8196677783.2851                STO-SY =     6074219.8826     STORAGE         
                 WEL =  5260434977.5979                   WEL =     5258125.9537     WEL_0           
                 DRN = 21290518768.3289                   DRN =    40289819.6220     DRN_0           
                 RCH =           0.0000                   RCH =           0.0000     RCH_0           

           TOTAL OUT = 34747631529.2120             TOTAL OUT =    51622165.4582

            IN - OUT =        7700.1466              IN - OUT =       9.4134E-02

 PERCENT DISCREPANCY =           0.00     PERCENT DISCREPANCY =           0.00




         TIME SUMMARY AT END OF TIME STEP    1 IN STRESS PERIOD  499
                          TIME STEP LENGTH =    1.00000    
                        STRESS PERIOD TIME =    1.00000    
                     TOTAL SIMULATION TIME =    499.000    

end timestep


start timestep kper="500" kstp="1" mode="normal"


 OUTPUT CONTROL FOR STRESS PERIOD 500 IS REPEATED USING SETTINGS FROM A PREVIOUS STRESS PERIOD.


 STRESS PERIOD 500 IS TRANSIENT


 REUSING WELS FROM LAST STRESS PERIOD

 REUSING DRNS FROM LAST STRESS PERIOD

 REUSING RCHS FROM LAST STRESS PERIOD


  VOLUME BUDGET FOR ENTIRE MODEL AT END OF TIME STEP    1, STRESS PERIOD 500
  ---------------------------------------------------------------------------------------------------

     CUMULATIVE VOLUME      L**3       RATES FOR THIS TIME STEP      L**3/T          PACKAGE NAME    
     ------------------                 ------------------------                     ----------------

           IN:                                      IN:
           ---                                      ---
              STO-SS =           0.0000                STO-SS =           0.0000     STORAGE         
              STO-SY =  9749486697.7856                STO-SY =    18641515.3422     STORAGE         
                 WEL =           0.0000                   WEL =           0.0000     WEL_0           
                 DRN =           0.0000                   DRN =           0.0000     DRN_0           
                 RCH = 25051704140.2023                   RCH =    34910093.2871     RCH_0           

            TOTAL IN = 34801190837.9878              TOTAL IN =    53551608.6292

          OUT:                                     OUT:
          ----                                     ----
              STO-SS =           0.0000                STO-SS =           0.0000     STORAGE         
              STO-SY =  8202720836.3831                STO-SY =     6043053.0980     STORAGE         
                 WEL =  5266079425.7170                   WEL =     5644448.1191     WEL_0           
                 DRN = 21332382868.9652                   DRN =    41864100.6363     DRN_0           
                 RCH =           0.0000                   RCH =           0.0000     RCH_0           

           TOTAL OUT = 34801183131.0653             TOTAL OUT =    53551601.8534

            IN - OUT =        7706.9225              IN - OUT =           6.7759

 PERCENT DISCREPANCY =           0.00     PERCENT DISCREPANCY =           0.00




         TIME SUMMARY AT END OF TIME STEP    1 IN STRESS PERIOD  500
                          TIME STEP LENGTH =    1.00000    
                        STRESS PERIOD TIME =    1.00000    
                     TOTAL SIMULATION TIME =    500.000    

end timestep


start timestep kper="501" kstp="1" mode="normal"


 OUTPUT CONTROL FOR STRESS PERIOD 501 IS REPEATED USING SETTINGS FROM A PREVIOUS STRESS PERIOD.


 STRESS PERIOD 501 IS TRANSIENT


 REUSING WELS FROM LAST STRESS PERIOD

 REUSING DRNS FROM LAST STRESS PERIOD

 REUSING RCHS FROM LAST STRESS PERIOD


  VOLUME BUDGET FOR ENTIRE MODEL AT END OF TIME STEP    1, STRESS PERIOD 501
  ---------------------------------------------------------------------------------------------------

     CUMULATIVE VOLUME      L**3       RATES FOR THIS TIME STEP      L**3/T          PACKAGE NAME    
     ------------------                 ------------------------                     ----------------

           IN:                                      IN:
           ---                                      ---
              STO-SS =           0.0000                STO-SS =           0.0000     STORAGE         
              STO-SY =  9769334992.2975                STO-SY =    19848294.5119     STORAGE         
                 WEL =           0.0000                   WEL =           0.0000     WEL_0           
                 DRN =           0.0000                   DRN =           0.0000     DRN_0           
                 RCH = 25081625932.9754                   RCH =    29921792.7731     RCH_0           

            TOTAL IN = 34850960925.2729              TOTAL IN =    49770087.2850

          OUT:                                     OUT:
          ----                                     ----
              STO-SS =           0.0000                STO-SS =           0.0000     STORAGE         
              STO-SY =  8207953774.0190                STO-SY =     5232937.6359     STORAGE         
                 WEL =  5272539467.6553                   WEL =     6460041.9383     WEL_0           
                 DRN = 21370459867.1598                   DRN =    38076998.1946     DRN_0           
                 RCH =           0.0000                   RCH =           0.0000     RCH_0           

           TOTAL OUT = 34850953108.8341             TOTAL OUT =    49769977.7688

            IN - OUT =        7816.4387              IN - OUT =         109.5163

 PERCENT DISCREPANCY =           0.00     PERCENT DISCREPANCY =           0.00




         TIME SUMMARY AT END OF TIME STEP    1 IN STRESS PERIOD  501
                          TIME STEP LENGTH =    1.00000    
                        STRESS PERIOD TIME =    1.00000    
                     TOTAL SIMULATION TIME =    501.000    

end timestep


start timestep kper="502" kstp="1" mode="normal"


 OUTPUT CONTROL FOR STRESS PERIOD 502 IS REPEATED USING SETTINGS FROM A PREVIOUS STRESS PERIOD.


 STRESS PERIOD 502 IS TRANSIENT


 REUSING WELS FROM LAST STRESS PERIOD

 REUSING DRNS FROM LAST STRESS PERIOD

 REUSING RCHS FROM LAST STRESS PERIOD


  VOLUME BUDGET FOR ENTIRE MODEL AT END OF TIME STEP    1, STRESS PERIOD 502
  ---------------------------------------------------------------------------------------------------

     CUMULATIVE VOLUME      L**3       RATES FOR THIS TIME STEP      L**3/T          PACKAGE NAME    
     ------------------                 ------------------------                     ----------------

           IN:                                      IN:
           ---                                      ---
              STO-SS =           0.0000                STO-SS =           0.0000     STORAGE         
              STO-SY =  9789697092.4419                STO-SY =    20362100.1444     STORAGE         
                 WEL =           0.0000                   WEL =           0.0000     WEL_0           
                 DRN =           0.0000                   DRN =           0.0000     DRN_0           
                 RCH = 25112278627.3841                   RCH =    30652694.4087     RCH_0           

            TOTAL IN = 34901975719.8260              TOTAL IN =    51014794.5531

          OUT:                                     OUT:
          ----                                     ----
              STO-SS =           0.0000                STO-SS =           0.0000     STORAGE         
              STO-SY =  8213098366.0085                STO-SY =     5144591.9895     STORAGE         
                 WEL =  5279222608.9151                   WEL =     6683141.2599     WEL_0           
                 DRN = 21409646868.0591                   DRN =    39187000.8993     DRN_0           
                 RCH =           0.0000                   RCH =           0.0000     RCH_0           

           TOTAL OUT = 34901967842.9827             TOTAL OUT =    51014734.1486

            IN - OUT =        7876.8433              IN - OUT =          60.4045

 PERCENT DISCREPANCY =           0.00     PERCENT DISCREPANCY =           0.00




         TIME SUMMARY AT END OF TIME STEP    1 IN STRESS PERIOD  502
                          TIME STEP LENGTH =    1.00000    
                        STRESS PERIOD TIME =    1.00000    
                     TOTAL SIMULATION TIME =    502.000    

end timestep


start timestep kper="503" kstp="1" mode="normal"


 OUTPUT CONTROL FOR STRESS PERIOD 503 IS REPEATED USING SETTINGS FROM A PREVIOUS STRESS PERIOD.


 STRESS PERIOD 503 IS TRANSIENT


 REUSING WELS FROM LAST STRESS PERIOD

 REUSING DRNS FROM LAST STRESS PERIOD

 REUSING RCHS FROM LAST STRESS PERIOD


  VOLUME BUDGET FOR ENTIRE MODEL AT END OF TIME STEP    1, STRESS PERIOD 503
  ---------------------------------------------------------------------------------------------------

     CUMULATIVE VOLUME      L**3       RATES FOR THIS TIME STEP      L**3/T          PACKAGE NAME    
     ------------------                 ------------------------                     ----------------

           IN:                                      IN:
           ---                                      ---
              STO-SS =           0.0000                STO-SS =           0.0000     STORAGE         
              STO-SY =  9810548668.2113                STO-SY =    20851575.7694     STORAGE         
                 WEL =           0.0000                   WEL =           0.0000     WEL_0           
                 DRN =           0.0000                   DRN =           0.0000     DRN_0           
                 RCH = 25138775476.6382                   RCH =    26496849.2542     RCH_0           

            TOTAL IN = 34949324144.8495              TOTAL IN =    47348425.0235

          OUT:                                     OUT:
          ----                                     ----
              STO-SS =           0.0000                STO-SS =           0.0000     STORAGE         
              STO-SY =  8217614009.6190                STO-SY =     4515643.6104     STORAGE         
                 WEL =  5286329277.6106                   WEL =     7106668.6955     WEL_0           
                 DRN = 21445372907.5261                   DRN =    35726039.4670     DRN_0           
                 RCH =           0.0000                   RCH =           0.0000     RCH_0           

           TOTAL OUT = 34949316194.7556             TOTAL OUT =    47348351.7729

            IN - OUT =        7950.0939              IN - OUT =          73.2506

 PERCENT DISCREPANCY =           0.00     PERCENT DISCREPANCY =           0.00




         TIME SUMMARY AT END OF TIME STEP    1 IN STRESS PERIOD  503
                          TIME STEP LENGTH =    1.00000    
                        STRESS PERIOD TIME =    1.00000    
                     TOTAL SIMULATION TIME =    503.000    

end timestep


start timestep kper="504" kstp="1" mode="normal"


 OUTPUT CONTROL FOR STRESS PERIOD 504 IS REPEATED USING SETTINGS FROM A PREVIOUS STRESS PERIOD.


 STRESS PERIOD 504 IS TRANSIENT


 REUSING WELS FROM LAST STRESS PERIOD

 REUSING DRNS FROM LAST STRESS PERIOD

 REUSING RCHS FROM LAST STRESS PERIOD


  VOLUME BUDGET FOR ENTIRE MODEL AT END OF TIME STEP    1, STRESS PERIOD 504
  ---------------------------------------------------------------------------------------------------

     CUMULATIVE VOLUME      L**3       RATES FOR THIS TIME STEP      L**3/T          PACKAGE NAME    
     ------------------                 ------------------------                     ----------------

           IN:                                      IN:
           ---                                      ---
              STO-SS =           0.0000                STO-SS =           0.0000     STORAGE         
              STO-SY =  9831027783.9721                STO-SY =    20479115.7608     STORAGE         
                 WEL =           0.0000                   WEL =           0.0000     WEL_0           
                 DRN =           0.0000                   DRN =           0.0000     DRN_0           
                 RCH = 25166033401.5841                   RCH =    27257924.9458     RCH_0           

            TOTAL IN = 34997061185.5562              TOTAL IN =    47737040.7066

          OUT:                                     OUT:
          ----                                     ----
              STO-SS =           0.0000                STO-SS =           0.0000     STORAGE         
              STO-SY =  8221603052.1777                STO-SY =     3989042.5587     STORAGE         
                 WEL =  5292856891.7748                   WEL =     6527614.1642     WEL_0           
                 DRN = 21482593241.8795                   DRN =    37220334.3535     DRN_0           
                 RCH =           0.0000                   RCH =           0.0000     RCH_0           

           TOTAL OUT = 34997053185.8321             TOTAL OUT =    47736991.0764

            IN - OUT =        7999.7241              IN - OUT =          49.6302

 PERCENT DISCREPANCY =           0.00     PERCENT DISCREPANCY =           0.00




         TIME SUMMARY AT END OF TIME STEP    1 IN STRESS PERIOD  504
                          TIME STEP LENGTH =    1.00000    
                        STRESS PERIOD TIME =    1.00000    
                     TOTAL SIMULATION TIME =    504.000    

end timestep


start timestep kper="505" kstp="1" mode="normal"


 OUTPUT CONTROL FOR STRESS PERIOD 505 IS REPEATED USING SETTINGS FROM A PREVIOUS STRESS PERIOD.


 STRESS PERIOD 505 IS TRANSIENT


 REUSING WELS FROM LAST STRESS PERIOD

 REUSING DRNS FROM LAST STRESS PERIOD

 REUSING RCHS FROM LAST STRESS PERIOD


  VOLUME BUDGET FOR ENTIRE MODEL AT END OF TIME STEP    1, STRESS PERIOD 505
  ---------------------------------------------------------------------------------------------------

     CUMULATIVE VOLUME      L**3       RATES FOR THIS TIME STEP      L**3/T          PACKAGE NAME    
     ------------------                 ------------------------                     ----------------

           IN:                                      IN:
           ---                                      ---
              STO-SS =           0.0000                STO-SS =           0.0000     STORAGE         
              STO-SY =  9852541555.5310                STO-SY =    21513771.5589     STORAGE         
                 WEL =           0.0000                   WEL =           0.0000     WEL_0           
                 DRN =           0.0000                   DRN =           0.0000     DRN_0           
                 RCH = 25189898816.5153                   RCH =    23865414.9313     RCH_0           

            TOTAL IN = 35042440372.0463              TOTAL IN =    45379186.4901

          OUT:                                     OUT:
          ----                                     ----
              STO-SS =           0.0000                STO-SS =           0.0000     STORAGE         
              STO-SY =  8225520471.8897                STO-SY =     3917419.7121     STORAGE         
                 WEL =  5300451395.6013                   WEL =     7594503.8264     WEL_0           
                 DRN = 21516460507.0538                   DRN =    33867265.1743     DRN_0           
                 RCH =           0.0000                   RCH =           0.0000     RCH_0           

           TOTAL OUT = 35042432374.5448             TOTAL OUT =    45379188.7128

            IN - OUT =        7997.5015              IN - OUT =          -2.2226

 PERCENT DISCREPANCY =           0.00     PERCENT DISCREPANCY =          -0.00




         TIME SUMMARY AT END OF TIME STEP    1 IN STRESS PERIOD  505
                          TIME STEP LENGTH =    1.00000    
                        STRESS PERIOD TIME =    1.00000    
                     TOTAL SIMULATION TIME =    505.000    

end timestep


start timestep kper="506" kstp="1" mode="normal"


 OUTPUT CONTROL FOR STRESS PERIOD 506 IS REPEATED USING SETTINGS FROM A PREVIOUS STRESS PERIOD.


 STRESS PERIOD 506 IS TRANSIENT


 REUSING WELS FROM LAST STRESS PERIOD

 REUSING DRNS FROM LAST STRESS PERIOD

 REUSING RCHS FROM LAST STRESS PERIOD


  VOLUME BUDGET FOR ENTIRE MODEL AT END OF TIME STEP    1, STRESS PERIOD 506
  ---------------------------------------------------------------------------------------------------

     CUMULATIVE VOLUME      L**3       RATES FOR THIS TIME STEP      L**3/T          PACKAGE NAME    
     ------------------                 ------------------------                     ----------------

           IN:                                      IN:
           ---                                      ---
              STO-SS =           0.0000                STO-SS =           0.0000     STORAGE         
              STO-SY =  9875151260.0409                STO-SY =    22609704.5099     STORAGE         
                 WEL =           0.0000                   WEL =           0.0000     WEL_0           
                 DRN =           0.0000                   DRN =           0.0000     DRN_0           
                 RCH = 25215502675.7424                   RCH =    25603859.2270     RCH_0           

            TOTAL IN = 35090653935.7833              TOTAL IN =    48213563.7370

          OUT:                                     OUT:
          ----                                     ----
              STO-SS =           0.0000                STO-SS =           0.0000     STORAGE         
              STO-SY =  8229269498.4499                STO-SY =     3749026.5602     STORAGE         
                 WEL =  5309901150.6141                   WEL =     9449755.0129     WEL_0           
                 DRN = 21551475282.0755                   DRN =    35014775.0217     DRN_0           
                 RCH =           0.0000                   RCH =           0.0000     RCH_0           

           TOTAL OUT = 35090645931.1396             TOTAL OUT =    48213556.5947

            IN - OUT =        8004.6437              IN - OUT =           7.1422

 PERCENT DISCREPANCY =           0.00     PERCENT DISCREPANCY =           0.00




         TIME SUMMARY AT END OF TIME STEP    1 IN STRESS PERIOD  506
                          TIME STEP LENGTH =    1.00000    
                        STRESS PERIOD TIME =    1.00000    
                     TOTAL SIMULATION TIME =    506.000    

end timestep


start timestep kper="507" kstp="1" mode="normal"


 OUTPUT CONTROL FOR STRESS PERIOD 507 IS REPEATED USING SETTINGS FROM A PREVIOUS STRESS PERIOD.


 STRESS PERIOD 507 IS TRANSIENT


 REUSING WELS FROM LAST STRESS PERIOD

 REUSING DRNS FROM LAST STRESS PERIOD

 REUSING RCHS FROM LAST STRESS PERIOD


  VOLUME BUDGET FOR ENTIRE MODEL AT END OF TIME STEP    1, STRESS PERIOD 507
  ---------------------------------------------------------------------------------------------------

     CUMULATIVE VOLUME      L**3       RATES FOR THIS TIME STEP      L**3/T          PACKAGE NAME    
     ------------------                 ------------------------                     ----------------

           IN:                                      IN:
           ---                                      ---
              STO-SS =           0.0000                STO-SS =           0.0000     STORAGE         
              STO-SY =  9898299780.0799                STO-SY =    23148520.0390     STORAGE         
                 WEL =           0.0000                   WEL =           0.0000     WEL_0           
                 DRN =           0.0000                   DRN =           0.0000     DRN_0           
                 RCH = 25237310933.4583                   RCH =    21808257.7160     RCH_0           

            TOTAL IN = 35135610713.5382              TOTAL IN =    44956777.7550

          OUT:                                     OUT:
          ----                                     ----
              STO-SS =           0.0000                STO-SS =           0.0000     STORAGE         
              STO-SY =  8232445286.4023                STO-SY =     3175787.9523     STORAGE         
                 WEL =  5319731699.2794                   WEL =     9830548.6652     WEL_0           
                 DRN = 21583425724.4184                   DRN =    31950442.3429     DRN_0           
                 RCH =           0.0000                   RCH =           0.0000     RCH_0           

           TOTAL OUT = 35135602710.1000             TOTAL OUT =    44956778.9604

            IN - OUT =        8003.4382              IN - OUT =          -1.2055

 PERCENT DISCREPANCY =           0.00     PERCENT DISCREPANCY =          -0.00




         TIME SUMMARY AT END OF TIME STEP    1 IN STRESS PERIOD  507
                          TIME STEP LENGTH =    1.00000    
                        STRESS PERIOD TIME =    1.00000    
                     TOTAL SIMULATION TIME =    507.000    

end timestep


start timestep kper="508" kstp="1" mode="normal"


 OUTPUT CONTROL FOR STRESS PERIOD 508 IS REPEATED USING SETTINGS FROM A PREVIOUS STRESS PERIOD.


 STRESS PERIOD 508 IS TRANSIENT


 REUSING WELS FROM LAST STRESS PERIOD

 REUSING DRNS FROM LAST STRESS PERIOD

 REUSING RCHS FROM LAST STRESS PERIOD


  VOLUME BUDGET FOR ENTIRE MODEL AT END OF TIME STEP    1, STRESS PERIOD 508
  ---------------------------------------------------------------------------------------------------

     CUMULATIVE VOLUME      L**3       RATES FOR THIS TIME STEP      L**3/T          PACKAGE NAME    
     ------------------                 ------------------------                     ----------------

           IN:                                      IN:
           ---                                      ---
              STO-SS =           0.0000                STO-SS =           0.0000     STORAGE         
              STO-SY =  9920296171.4313                STO-SY =    21996391.3514     STORAGE         
                 WEL =           0.0000                   WEL =           0.0000     WEL_0           
                 DRN =           0.0000                   DRN =           0.0000     DRN_0           
                 RCH = 25259871606.9378                   RCH =    22560673.4795     RCH_0           

            TOTAL IN = 35180167778.3692              TOTAL IN =    44557064.8309

          OUT:                                     OUT:
          ----                                     ----
              STO-SS =           0.0000                STO-SS =           0.0000     STORAGE         
              STO-SY =  8235650461.6634                STO-SY =     3205175.2612     STORAGE         
                 WEL =  5327693443.6453                   WEL =     7961744.3659     WEL_0           
                 DRN = 21616815863.3593                   DRN =    33390138.9409     DRN_0           
                 RCH =           0.0000                   RCH =           0.0000     RCH_0           

           TOTAL OUT = 35180159768.6680             TOTAL OUT =    44557058.5680

            IN - OUT =        8009.7012              IN - OUT =           6.2629

 PERCENT DISCREPANCY =           0.00     PERCENT DISCREPANCY =           0.00




         TIME SUMMARY AT END OF TIME STEP    1 IN STRESS PERIOD  508
                          TIME STEP LENGTH =    1.00000    
                        STRESS PERIOD TIME =    1.00000    
                     TOTAL SIMULATION TIME =    508.000    

end timestep


start timestep kper="509" kstp="1" mode="normal"


 OUTPUT CONTROL FOR STRESS PERIOD 509 IS REPEATED USING SETTINGS FROM A PREVIOUS STRESS PERIOD.


 STRESS PERIOD 509 IS TRANSIENT


 REUSING WELS FROM LAST STRESS PERIOD

 REUSING DRNS FROM LAST STRESS PERIOD

 REUSING RCHS FROM LAST STRESS PERIOD


  VOLUME BUDGET FOR ENTIRE MODEL AT END OF TIME STEP    1, STRESS PERIOD 509
  ---------------------------------------------------------------------------------------------------

     CUMULATIVE VOLUME      L**3       RATES FOR THIS TIME STEP      L**3/T          PACKAGE NAME    
     ------------------                 ------------------------                     ----------------

           IN:                                      IN:
           ---                                      ---
              STO-SS =           0.0000                STO-SS =           0.0000     STORAGE         
              STO-SY =  9940407358.6852                STO-SY =    20111187.2539     STORAGE         
                 WEL =           0.0000                   WEL =           0.0000     WEL_0           
                 DRN =           0.0000                   DRN =           0.0000     DRN_0           
                 RCH = 25281740921.2617                   RCH =    21869314.3239     RCH_0           

            TOTAL IN = 35222148279.9470              TOTAL IN =    41980501.5778

          OUT:                                     OUT:
          ----                                     ----
              STO-SS =           0.0000                STO-SS =           0.0000     STORAGE         
              STO-SY =  8239233297.2333                STO-SY =     3582835.5698     STORAGE         
                 WEL =  5334578861.8994                   WEL =     6885418.2542     WEL_0           
                 DRN = 21648328114.2926                   DRN =    31512250.9334     DRN_0           
                 RCH =           0.0000                   RCH =           0.0000     RCH_0           

           TOTAL OUT = 35222140273.4254             TOTAL OUT =    41980504.7574

            IN - OUT =        8006.5216              IN - OUT =          -3.1796

 PERCENT DISCREPANCY =           0.00     PERCENT DISCREPANCY =          -0.00




         TIME SUMMARY AT END OF TIME STEP    1 IN STRESS PERIOD  509
                          TIME STEP LENGTH =    1.00000    
                        STRESS PERIOD TIME =    1.00000    
                     TOTAL SIMULATION TIME =    509.000    

end timestep


start timestep kper="510" kstp="1" mode="normal"


 OUTPUT CONTROL FOR STRESS PERIOD 510 IS REPEATED USING SETTINGS FROM A PREVIOUS STRESS PERIOD.


 STRESS PERIOD 510 IS TRANSIENT


 REUSING WELS FROM LAST STRESS PERIOD

 REUSING DRNS FROM LAST STRESS PERIOD

 REUSING RCHS FROM LAST STRESS PERIOD


  VOLUME BUDGET FOR ENTIRE MODEL AT END OF TIME STEP    1, STRESS PERIOD 510
  ---------------------------------------------------------------------------------------------------

     CUMULATIVE VOLUME      L**3       RATES FOR THIS TIME STEP      L**3/T          PACKAGE NAME    
     ------------------                 ------------------------                     ----------------

           IN:                                      IN:
           ---                                      ---
              STO-SS =           0.0000                STO-SS =           0.0000     STORAGE         
              STO-SY =  9958574336.6015                STO-SY =    18166977.9163     STORAGE         
                 WEL =           0.0000                   WEL =           0.0000     WEL_0           
                 DRN =           0.0000                   DRN =           0.0000     DRN_0           
                 RCH = 25314198362.5583                   RCH =    32457441.2965     RCH_0           

            TOTAL IN = 35272772699.1598              TOTAL IN =    50624419.2128

          OUT:                                     OUT:
          ----                                     ----
              STO-SS =           0.0000                STO-SS =           0.0000     STORAGE         
              STO-SY =  8248428020.1732                STO-SY =     9194722.9399     STORAGE         
                 WEL =  5341361826.6854                   WEL =     6782964.7860     WEL_0           
                 DRN = 21682974747.1115                   DRN =    34646632.8189     DRN_0           
                 RCH =           0.0000                   RCH =           0.0000     RCH_0           

           TOTAL OUT = 35272764593.9702             TOTAL OUT =    50624320.5448

            IN - OUT =        8105.1896              IN - OUT =          98.6680

 PERCENT DISCREPANCY =           0.00     PERCENT DISCREPANCY =           0.00




         TIME SUMMARY AT END OF TIME STEP    1 IN STRESS PERIOD  510
                          TIME STEP LENGTH =    1.00000    
                        STRESS PERIOD TIME =    1.00000    
                     TOTAL SIMULATION TIME =    510.000    

end timestep


start timestep kper="511" kstp="1" mode="normal"


 OUTPUT CONTROL FOR STRESS PERIOD 511 IS REPEATED USING SETTINGS FROM A PREVIOUS STRESS PERIOD.


 STRESS PERIOD 511 IS TRANSIENT


 REUSING WELS FROM LAST STRESS PERIOD

 REUSING DRNS FROM LAST STRESS PERIOD

 REUSING RCHS FROM LAST STRESS PERIOD


  VOLUME BUDGET FOR ENTIRE MODEL AT END OF TIME STEP    1, STRESS PERIOD 511
  ---------------------------------------------------------------------------------------------------

     CUMULATIVE VOLUME      L**3       RATES FOR THIS TIME STEP      L**3/T          PACKAGE NAME    
     ------------------                 ------------------------                     ----------------

           IN:                                      IN:
           ---                                      ---
              STO-SS =           0.0000                STO-SS =           0.0000     STORAGE         
              STO-SY =  9979445793.8587                STO-SY =    20871457.2572     STORAGE         
                 WEL =           0.0000                   WEL =           0.0000     WEL_0           
                 DRN =           0.0000                   DRN =           0.0000     DRN_0           
                 RCH = 25333520720.2876                   RCH =    19322357.7293     RCH_0           

            TOTAL IN = 35312966514.1463              TOTAL IN =    40193814.9865

          OUT:                                     OUT:
          ----                                     ----
              STO-SS =           0.0000                STO-SS =           0.0000     STORAGE         
              STO-SY =  8251180833.3428                STO-SY =     2752813.1696     STORAGE         
                 WEL =  5348064474.2138                   WEL =     6702647.5284     WEL_0           
                 DRN = 21713713106.9664                   DRN =    30738359.8549     DRN_0           
                 RCH =           0.0000                   RCH =           0.0000     RCH_0           

           TOTAL OUT = 35312958414.5230             TOTAL OUT =    40193820.5528

            IN - OUT =        8099.6233              IN - OUT =          -5.5663

 PERCENT DISCREPANCY =           0.00     PERCENT DISCREPANCY =          -0.00




         TIME SUMMARY AT END OF TIME STEP    1 IN STRESS PERIOD  511
                          TIME STEP LENGTH =    1.00000    
                        STRESS PERIOD TIME =    1.00000    
                     TOTAL SIMULATION TIME =    511.000    

end timestep


start timestep kper="512" kstp="1" mode="normal"


 OUTPUT CONTROL FOR STRESS PERIOD 512 IS REPEATED USING SETTINGS FROM A PREVIOUS STRESS PERIOD.


 STRESS PERIOD 512 IS TRANSIENT


 REUSING WELS FROM LAST STRESS PERIOD

 REUSING DRNS FROM LAST STRESS PERIOD

 REUSING RCHS FROM LAST STRESS PERIOD


  VOLUME BUDGET FOR ENTIRE MODEL AT END OF TIME STEP    1, STRESS PERIOD 512
  ---------------------------------------------------------------------------------------------------

     CUMULATIVE VOLUME      L**3       RATES FOR THIS TIME STEP      L**3/T          PACKAGE NAME    
     ------------------                 ------------------------                     ----------------

           IN:                                      IN:
           ---                                      ---
              STO-SS =           0.0000                STO-SS =           0.0000     STORAGE         
              STO-SY =  9984474769.5318                STO-SY =     5028975.6731     STORAGE         
                 WEL =           0.0000                   WEL =           0.0000     WEL_0           
                 DRN =           0.0000                   DRN =           0.0000     DRN_0           
                 RCH = 25407439963.3180                   RCH =    73919243.0304     RCH_0           

            TOTAL IN = 35391914732.8498              TOTAL IN =    78948218.7035

          OUT:                                     OUT:
          ----                                     ----
              STO-SS =           0.0000                STO-SS =           0.0000     STORAGE         
              STO-SY =  8280888288.1619                STO-SY =    29707454.8191     STORAGE         
                 WEL =  5353567514.4743                   WEL =     5503040.2605     WEL_0           
                 DRN = 21757450817.9395                   DRN =    43737710.9731     DRN_0           
                 RCH =           0.0000                   RCH =           0.0000     RCH_0           

           TOTAL OUT = 35391906620.5756             TOTAL OUT =    78948206.0527

            IN - OUT =        8112.2742              IN - OUT =          12.6509

 PERCENT DISCREPANCY =           0.00     PERCENT DISCREPANCY =           0.00




         TIME SUMMARY AT END OF TIME STEP    1 IN STRESS PERIOD  512
                          TIME STEP LENGTH =    1.00000    
                        STRESS PERIOD TIME =    1.00000    
                     TOTAL SIMULATION TIME =    512.000    

end timestep


start timestep kper="513" kstp="1" mode="normal"


 OUTPUT CONTROL FOR STRESS PERIOD 513 IS REPEATED USING SETTINGS FROM A PREVIOUS STRESS PERIOD.


 STRESS PERIOD 513 IS TRANSIENT


 REUSING WELS FROM LAST STRESS PERIOD

 REUSING DRNS FROM LAST STRESS PERIOD

 REUSING RCHS FROM LAST STRESS PERIOD


  VOLUME BUDGET FOR ENTIRE MODEL AT END OF TIME STEP    1, STRESS PERIOD 513
  ---------------------------------------------------------------------------------------------------

     CUMULATIVE VOLUME      L**3       RATES FOR THIS TIME STEP      L**3/T          PACKAGE NAME    
     ------------------                 ------------------------                     ----------------

           IN:                                      IN:
           ---                                      ---
              STO-SS =           0.0000                STO-SS =           0.0000     STORAGE         
              STO-SY = 10004875413.1695                STO-SY =    20400643.6378     STORAGE         
                 WEL =           0.0000                   WEL =           0.0000     WEL_0           
                 DRN =           0.0000                   DRN =           0.0000     DRN_0           
                 RCH = 25426395788.5789                   RCH =    18955825.2609     RCH_0           

            TOTAL IN = 35431271201.7485              TOTAL IN =    39356468.8987

          OUT:                                     OUT:
          ----                                     ----
              STO-SS =           0.0000                STO-SS =           0.0000     STORAGE         
              STO-SY =  8283348786.4639                STO-SY =     2460498.3020     STORAGE         
                 WEL =  5359312852.1826                   WEL =     5745337.7084     WEL_0           
                 DRN = 21788601450.9767                   DRN =    31150633.0372     DRN_0           
                 RCH =           0.0000                   RCH =           0.0000     RCH_0           

           TOTAL OUT = 35431263089.6232             TOTAL OUT =    39356469.0476

            IN - OUT =        8112.1252              IN - OUT =          -0.1489

 PERCENT DISCREPANCY =           0.00     PERCENT DISCREPANCY =          -0.00




         TIME SUMMARY AT END OF TIME STEP    1 IN STRESS PERIOD  513
                          TIME STEP LENGTH =    1.00000    
                        STRESS PERIOD TIME =    1.00000    
                     TOTAL SIMULATION TIME =    513.000    

end timestep


start timestep kper="514" kstp="1" mode="normal"


 OUTPUT CONTROL FOR STRESS PERIOD 514 IS REPEATED USING SETTINGS FROM A PREVIOUS STRESS PERIOD.


 STRESS PERIOD 514 IS TRANSIENT


 REUSING WELS FROM LAST STRESS PERIOD

 REUSING DRNS FROM LAST STRESS PERIOD

 REUSING RCHS FROM LAST STRESS PERIOD


  VOLUME BUDGET FOR ENTIRE MODEL AT END OF TIME STEP    1, STRESS PERIOD 514
  ---------------------------------------------------------------------------------------------------

     CUMULATIVE VOLUME      L**3       RATES FOR THIS TIME STEP      L**3/T          PACKAGE NAME    
     ------------------                 ------------------------                     ----------------

           IN:                                      IN:
           ---                                      ---
              STO-SS =           0.0000                STO-SS =           0.0000     STORAGE         
              STO-SY = 10013931726.0901                STO-SY =     9056312.9206     STORAGE         
                 WEL =           0.0000                   WEL =           0.0000     WEL_0           
                 DRN =           0.0000                   DRN =           0.0000     DRN_0           
                 RCH = 25469269244.5506                   RCH =    42873455.9717     RCH_0           

            TOTAL IN = 35483200970.6408              TOTAL IN =    51929768.8923

          OUT:                                     OUT:
          ----                                     ----
              STO-SS =           0.0000                STO-SS =           0.0000     STORAGE         
              STO-SY =  8293560763.2098                STO-SY =    10211976.7459     STORAGE         
                 WEL =  5364646810.4660                   WEL =     5333958.2833     WEL_0           
                 DRN = 21824985271.3725                   DRN =    36383820.3958     DRN_0           
                 RCH =           0.0000                   RCH =           0.0000     RCH_0           

           TOTAL OUT = 35483192845.0482             TOTAL OUT =    51929755.4250

            IN - OUT =        8125.5925              IN - OUT =          13.4673

 PERCENT DISCREPANCY =           0.00     PERCENT DISCREPANCY =           0.00




         TIME SUMMARY AT END OF TIME STEP    1 IN STRESS PERIOD  514
                          TIME STEP LENGTH =    1.00000    
                        STRESS PERIOD TIME =    1.00000    
                     TOTAL SIMULATION TIME =    514.000    

end timestep


start timestep kper="515" kstp="1" mode="normal"


 OUTPUT CONTROL FOR STRESS PERIOD 515 IS REPEATED USING SETTINGS FROM A PREVIOUS STRESS PERIOD.


 STRESS PERIOD 515 IS TRANSIENT


 REUSING WELS FROM LAST STRESS PERIOD

 REUSING DRNS FROM LAST STRESS PERIOD

 REUSING RCHS FROM LAST STRESS PERIOD


  VOLUME BUDGET FOR ENTIRE MODEL AT END OF TIME STEP    1, STRESS PERIOD 515
  ---------------------------------------------------------------------------------------------------

     CUMULATIVE VOLUME      L**3       RATES FOR THIS TIME STEP      L**3/T          PACKAGE NAME    
     ------------------                 ------------------------                     ----------------

           IN:                                      IN:
           ---                                      ---
              STO-SS =           0.0000                STO-SS =           0.0000     STORAGE         
              STO-SY = 10028890029.2474                STO-SY =    14958303.1573     STORAGE         
                 WEL =           0.0000                   WEL =           0.0000     WEL_0           
                 DRN =           0.0000                   DRN =           0.0000     DRN_0           
                 RCH = 25496866456.6286                   RCH =    27597212.0780     RCH_0           

            TOTAL IN = 35525756485.8760              TOTAL IN =    42555515.2353

          OUT:                                     OUT:
          ----                                     ----
              STO-SS =           0.0000                STO-SS =           0.0000     STORAGE         
              STO-SY =  8297594765.2895                STO-SY =     4034002.0798     STORAGE         
                 WEL =  5370982005.2005                   WEL =     6335194.7345     WEL_0           
                 DRN = 21857171590.0025                   DRN =    32186318.6300     DRN_0           
                 RCH =           0.0000                   RCH =           0.0000     RCH_0           

           TOTAL OUT = 35525748360.4925             TOTAL OUT =    42555515.4443

            IN - OUT =        8125.3835              IN - OUT =          -0.2090

 PERCENT DISCREPANCY =           0.00     PERCENT DISCREPANCY =          -0.00




         TIME SUMMARY AT END OF TIME STEP    1 IN STRESS PERIOD  515
                          TIME STEP LENGTH =    1.00000    
                        STRESS PERIOD TIME =    1.00000    
                     TOTAL SIMULATION TIME =    515.000    

end timestep


start timestep kper="516" kstp="1" mode="normal"


 OUTPUT CONTROL FOR STRESS PERIOD 516 IS REPEATED USING SETTINGS FROM A PREVIOUS STRESS PERIOD.


 STRESS PERIOD 516 IS TRANSIENT


 REUSING WELS FROM LAST STRESS PERIOD

 REUSING DRNS FROM LAST STRESS PERIOD

 REUSING RCHS FROM LAST STRESS PERIOD


  VOLUME BUDGET FOR ENTIRE MODEL AT END OF TIME STEP    1, STRESS PERIOD 516
  ---------------------------------------------------------------------------------------------------

     CUMULATIVE VOLUME      L**3       RATES FOR THIS TIME STEP      L**3/T          PACKAGE NAME    
     ------------------                 ------------------------                     ----------------

           IN:                                      IN:
           ---                                      ---
              STO-SS =           0.0000                STO-SS =           0.0000     STORAGE         
              STO-SY = 10048370202.1450                STO-SY =    19480172.8976     STORAGE         
                 WEL =           0.0000                   WEL =           0.0000     WEL_0           
                 DRN =           0.0000                   DRN =           0.0000     DRN_0           
                 RCH = 25520746143.1725                   RCH =    23879686.5439     RCH_0           

            TOTAL IN = 35569116345.3176              TOTAL IN =    43359859.4415

          OUT:                                     OUT:
          ----                                     ----
              STO-SS =           0.0000                STO-SS =           0.0000     STORAGE         
              STO-SY =  8301538964.5472                STO-SY =     3944199.2577     STORAGE         
                 WEL =  5377624388.1701                   WEL =     6642382.9696     WEL_0           
                 DRN = 21889944849.9571                   DRN =    32773259.9546     DRN_0           
                 RCH =           0.0000                   RCH =           0.0000     RCH_0           

           TOTAL OUT = 35569108202.6744             TOTAL OUT =    43359842.1819

            IN - OUT =        8142.6432              IN - OUT =          17.2597

 PERCENT DISCREPANCY =           0.00     PERCENT DISCREPANCY =           0.00




         TIME SUMMARY AT END OF TIME STEP    1 IN STRESS PERIOD  516
                          TIME STEP LENGTH =    1.00000    
                        STRESS PERIOD TIME =    1.00000    
                     TOTAL SIMULATION TIME =    516.000    

end timestep


start timestep kper="517" kstp="1" mode="normal"


 OUTPUT CONTROL FOR STRESS PERIOD 517 IS REPEATED USING SETTINGS FROM A PREVIOUS STRESS PERIOD.


 STRESS PERIOD 517 IS TRANSIENT


 REUSING WELS FROM LAST STRESS PERIOD

 REUSING DRNS FROM LAST STRESS PERIOD

 REUSING RCHS FROM LAST STRESS PERIOD


  VOLUME BUDGET FOR ENTIRE MODEL AT END OF TIME STEP    1, STRESS PERIOD 517
  ---------------------------------------------------------------------------------------------------

     CUMULATIVE VOLUME      L**3       RATES FOR THIS TIME STEP      L**3/T          PACKAGE NAME    
     ------------------                 ------------------------                     ----------------

           IN:                                      IN:
           ---                                      ---
              STO-SS =           0.0000                STO-SS =           0.0000     STORAGE         
              STO-SY = 10069558270.8556                STO-SY =    21188068.7106     STORAGE         
                 WEL =           0.0000                   WEL =           0.0000     WEL_0           
                 DRN =           0.0000                   DRN =           0.0000     DRN_0           
                 RCH = 25543766243.9547                   RCH =    23020100.7821     RCH_0           

            TOTAL IN = 35613324514.8103              TOTAL IN =    44208169.4927

          OUT:                                     OUT:
          ----                                     ----
              STO-SS =           0.0000                STO-SS =           0.0000     STORAGE         
              STO-SY =  8305949523.1800                STO-SY =     4410558.6328     STORAGE         
                 WEL =  5387210415.2398                   WEL =     9586027.0697     WEL_0           
                 DRN = 21920156432.4507                   DRN =    30211582.4936     DRN_0           
                 RCH =           0.0000                   RCH =           0.0000     RCH_0           

           TOTAL OUT = 35613316370.8705             TOTAL OUT =    44208168.1962

            IN - OUT =        8143.9398              IN - OUT =           1.2966

 PERCENT DISCREPANCY =           0.00     PERCENT DISCREPANCY =           0.00




         TIME SUMMARY AT END OF TIME STEP    1 IN STRESS PERIOD  517
                          TIME STEP LENGTH =    1.00000    
                        STRESS PERIOD TIME =    1.00000    
                     TOTAL SIMULATION TIME =    517.000    

end timestep


start timestep kper="518" kstp="1" mode="normal"


 OUTPUT CONTROL FOR STRESS PERIOD 518 IS REPEATED USING SETTINGS FROM A PREVIOUS STRESS PERIOD.


 STRESS PERIOD 518 IS TRANSIENT


 REUSING WELS FROM LAST STRESS PERIOD

 REUSING DRNS FROM LAST STRESS PERIOD

 REUSING RCHS FROM LAST STRESS PERIOD


  VOLUME BUDGET FOR ENTIRE MODEL AT END OF TIME STEP    1, STRESS PERIOD 518
  ---------------------------------------------------------------------------------------------------

     CUMULATIVE VOLUME      L**3       RATES FOR THIS TIME STEP      L**3/T          PACKAGE NAME    
     ------------------                 ------------------------                     ----------------

           IN:                                      IN:
           ---                                      ---
              STO-SS =           0.0000                STO-SS =           0.0000     STORAGE         
              STO-SY = 10091888377.3324                STO-SY =    22330106.4768     STORAGE         
                 WEL =           0.0000                   WEL =           0.0000     WEL_0           
                 DRN =           0.0000                   DRN =           0.0000     DRN_0           
                 RCH = 25567922866.2416                   RCH =    24156622.2869     RCH_0           

            TOTAL IN = 35659811243.5741              TOTAL IN =    46486728.7637

          OUT:                                     OUT:
          ----                                     ----
              STO-SS =           0.0000                STO-SS =           0.0000     STORAGE         
              STO-SY =  8310069928.9495                STO-SY =     4120405.7695     STORAGE         
                 WEL =  5397803372.2163                   WEL =    10592956.9765     WEL_0           
                 DRN = 21951929795.2148                   DRN =    31773362.7641     DRN_0           
                 RCH =           0.0000                   RCH =           0.0000     RCH_0           

           TOTAL OUT = 35659803096.3806             TOTAL OUT =    46486725.5101

            IN - OUT =        8147.1935              IN - OUT =           3.2537

 PERCENT DISCREPANCY =           0.00     PERCENT DISCREPANCY =           0.00




         TIME SUMMARY AT END OF TIME STEP    1 IN STRESS PERIOD  518
                          TIME STEP LENGTH =    1.00000    
                        STRESS PERIOD TIME =    1.00000    
                     TOTAL SIMULATION TIME =    518.000    

end timestep


start timestep kper="519" kstp="1" mode="normal"


 OUTPUT CONTROL FOR STRESS PERIOD 519 IS REPEATED USING SETTINGS FROM A PREVIOUS STRESS PERIOD.


 STRESS PERIOD 519 IS TRANSIENT


 REUSING WELS FROM LAST STRESS PERIOD

 REUSING DRNS FROM LAST STRESS PERIOD

 REUSING RCHS FROM LAST STRESS PERIOD


  VOLUME BUDGET FOR ENTIRE MODEL AT END OF TIME STEP    1, STRESS PERIOD 519
  ---------------------------------------------------------------------------------------------------

     CUMULATIVE VOLUME      L**3       RATES FOR THIS TIME STEP      L**3/T          PACKAGE NAME    
     ------------------                 ------------------------                     ----------------

           IN:                                      IN:
           ---                                      ---
              STO-SS =           0.0000                STO-SS =           0.0000     STORAGE         
              STO-SY = 10114422678.4161                STO-SY =    22534301.0836     STORAGE         
                 WEL =           0.0000                   WEL =           0.0000     WEL_0           
                 DRN =           0.0000                   DRN =           0.0000     DRN_0           
                 RCH = 25591402024.0378                   RCH =    23479157.7962     RCH_0           

            TOTAL IN = 35705824702.4539              TOTAL IN =    46013458.8798

          OUT:                                     OUT:
          ----                                     ----
              STO-SS =           0.0000                STO-SS =           0.0000     STORAGE         
              STO-SY =  8314536367.1426                STO-SY =     4466438.1931     STORAGE         
                 WEL =  5409819268.8716                   WEL =    12015896.6553     WEL_0           
                 DRN = 21981460917.6500                   DRN =    29531122.4352     DRN_0           
                 RCH =           0.0000                   RCH =           0.0000     RCH_0           

           TOTAL OUT = 35705816553.6642             TOTAL OUT =    46013457.2837

            IN - OUT =        8148.7896              IN - OUT =           1.5962

 PERCENT DISCREPANCY =           0.00     PERCENT DISCREPANCY =           0.00




         TIME SUMMARY AT END OF TIME STEP    1 IN STRESS PERIOD  519
                          TIME STEP LENGTH =    1.00000    
                        STRESS PERIOD TIME =    1.00000    
                     TOTAL SIMULATION TIME =    519.000    

end timestep


start timestep kper="520" kstp="1" mode="normal"


 OUTPUT CONTROL FOR STRESS PERIOD 520 IS REPEATED USING SETTINGS FROM A PREVIOUS STRESS PERIOD.


 STRESS PERIOD 520 IS TRANSIENT


 REUSING WELS FROM LAST STRESS PERIOD

 REUSING DRNS FROM LAST STRESS PERIOD

 REUSING RCHS FROM LAST STRESS PERIOD


  VOLUME BUDGET FOR ENTIRE MODEL AT END OF TIME STEP    1, STRESS PERIOD 520
  ---------------------------------------------------------------------------------------------------

     CUMULATIVE VOLUME      L**3       RATES FOR THIS TIME STEP      L**3/T          PACKAGE NAME    
     ------------------                 ------------------------                     ----------------

           IN:                                      IN:
           ---                                      ---
              STO-SS =           0.0000                STO-SS =           0.0000     STORAGE         
              STO-SY = 10129100714.3125                STO-SY =    14678035.8964     STORAGE         
                 WEL =           0.0000                   WEL =           0.0000     WEL_0           
                 DRN =           0.0000                   DRN =           0.0000     DRN_0           
                 RCH = 25639823609.4333                   RCH =    48421585.3955     RCH_0           

            TOTAL IN = 35768924323.7458              TOTAL IN =    63099621.2919

          OUT:                                     OUT:
          ----                                     ----
              STO-SS =           0.0000                STO-SS =           0.0000     STORAGE         
              STO-SY =  8336244547.7027                STO-SY =    21708180.5601     STORAGE         
                 WEL =  5416076689.0742                   WEL =     6257420.2025     WEL_0           
                 DRN = 22016594883.4961                   DRN =    35133965.8461     DRN_0           
                 RCH =           0.0000                   RCH =           0.0000     RCH_0           

           TOTAL OUT = 35768916120.2729             TOTAL OUT =    63099566.6087

            IN - OUT =        8203.4728              IN - OUT =          54.6832

 PERCENT DISCREPANCY =           0.00     PERCENT DISCREPANCY =           0.00




         TIME SUMMARY AT END OF TIME STEP    1 IN STRESS PERIOD  520
                          TIME STEP LENGTH =    1.00000    
                        STRESS PERIOD TIME =    1.00000    
                     TOTAL SIMULATION TIME =    520.000    

end timestep


start timestep kper="521" kstp="1" mode="normal"


 OUTPUT CONTROL FOR STRESS PERIOD 521 IS REPEATED USING SETTINGS FROM A PREVIOUS STRESS PERIOD.


 STRESS PERIOD 521 IS TRANSIENT


 REUSING WELS FROM LAST STRESS PERIOD

 REUSING DRNS FROM LAST STRESS PERIOD

 REUSING RCHS FROM LAST STRESS PERIOD


  VOLUME BUDGET FOR ENTIRE MODEL AT END OF TIME STEP    1, STRESS PERIOD 521
  ---------------------------------------------------------------------------------------------------

     CUMULATIVE VOLUME      L**3       RATES FOR THIS TIME STEP      L**3/T          PACKAGE NAME    
     ------------------                 ------------------------                     ----------------

           IN:                                      IN:
           ---                                      ---
              STO-SS =           0.0000                STO-SS =           0.0000     STORAGE         
              STO-SY = 10143305782.1926                STO-SY =    14205067.8801     STORAGE         
                 WEL =           0.0000                   WEL =           0.0000     WEL_0           
                 DRN =           0.0000                   DRN =           0.0000     DRN_0           
                 RCH = 25673859696.9744                   RCH =    34036087.5411     RCH_0           

            TOTAL IN = 35817165479.1670              TOTAL IN =    48241155.4212

          OUT:                                     OUT:
          ----                                     ----
              STO-SS =           0.0000                STO-SS =           0.0000     STORAGE         
              STO-SY =  8346961777.9113                STO-SY =    10717230.2087     STORAGE         
                 WEL =  5422225100.2613                   WEL =     6148411.1872     WEL_0           
                 DRN = 22047970368.9325                   DRN =    31375485.4364     DRN_0           
                 RCH =           0.0000                   RCH =           0.0000     RCH_0           

           TOTAL OUT = 35817157247.1052             TOTAL OUT =    48241126.8322

            IN - OUT =        8232.0618              IN - OUT =          28.5890

 PERCENT DISCREPANCY =           0.00     PERCENT DISCREPANCY =           0.00




         TIME SUMMARY AT END OF TIME STEP    1 IN STRESS PERIOD  521
                          TIME STEP LENGTH =    1.00000    
                        STRESS PERIOD TIME =    1.00000    
                     TOTAL SIMULATION TIME =    521.000    

end timestep


start timestep kper="522" kstp="1" mode="normal"


 OUTPUT CONTROL FOR STRESS PERIOD 522 IS REPEATED USING SETTINGS FROM A PREVIOUS STRESS PERIOD.


 STRESS PERIOD 522 IS TRANSIENT


 REUSING WELS FROM LAST STRESS PERIOD

 REUSING DRNS FROM LAST STRESS PERIOD

 REUSING RCHS FROM LAST STRESS PERIOD


  VOLUME BUDGET FOR ENTIRE MODEL AT END OF TIME STEP    1, STRESS PERIOD 522
  ---------------------------------------------------------------------------------------------------

     CUMULATIVE VOLUME      L**3       RATES FOR THIS TIME STEP      L**3/T          PACKAGE NAME    
     ------------------                 ------------------------                     ----------------

           IN:                                      IN:
           ---                                      ---
              STO-SS =           0.0000                STO-SS =           0.0000     STORAGE         
              STO-SY = 10160952938.1390                STO-SY =    17647155.9464     STORAGE         
                 WEL =           0.0000                   WEL =           0.0000     WEL_0           
                 DRN =           0.0000                   DRN =           0.0000     DRN_0           
                 RCH = 25697632351.0728                   RCH =    23772654.0984     RCH_0           

            TOTAL IN = 35858585289.2118              TOTAL IN =    41419810.0448

          OUT:                                     OUT:
          ----                                     ----
              STO-SS =           0.0000                STO-SS =           0.0000     STORAGE         
              STO-SY =  8350337710.4070                STO-SY =     3375932.4956     STORAGE         
                 WEL =  5428328192.1310                   WEL =     6103091.8696     WEL_0           
                 DRN = 22079911154.3512                   DRN =    31940785.4187     DRN_0           
                 RCH =           0.0000                   RCH =           0.0000     RCH_0           

           TOTAL OUT = 35858577056.8891             TOTAL OUT =    41419809.7839

            IN - OUT =        8232.3227              IN - OUT =           0.2609

 PERCENT DISCREPANCY =           0.00     PERCENT DISCREPANCY =           0.00




         TIME SUMMARY AT END OF TIME STEP    1 IN STRESS PERIOD  522
                          TIME STEP LENGTH =    1.00000    
                        STRESS PERIOD TIME =    1.00000    
                     TOTAL SIMULATION TIME =    522.000    

end timestep


start timestep kper="523" kstp="1" mode="normal"


 OUTPUT CONTROL FOR STRESS PERIOD 523 IS REPEATED USING SETTINGS FROM A PREVIOUS STRESS PERIOD.


 STRESS PERIOD 523 IS TRANSIENT


 REUSING WELS FROM LAST STRESS PERIOD

 REUSING DRNS FROM LAST STRESS PERIOD

 REUSING RCHS FROM LAST STRESS PERIOD


  VOLUME BUDGET FOR ENTIRE MODEL AT END OF TIME STEP    1, STRESS PERIOD 523
  ---------------------------------------------------------------------------------------------------

     CUMULATIVE VOLUME      L**3       RATES FOR THIS TIME STEP      L**3/T          PACKAGE NAME    
     ------------------                 ------------------------                     ----------------

           IN:                                      IN:
           ---                                      ---
              STO-SS =           0.0000                STO-SS =           0.0000     STORAGE         
              STO-SY = 10179813199.4571                STO-SY =    18860261.3181     STORAGE         
                 WEL =           0.0000                   WEL =           0.0000     WEL_0           
                 DRN =           0.0000                   DRN =           0.0000     DRN_0           
                 RCH = 25716380690.0069                   RCH =    18748338.9341     RCH_0           

            TOTAL IN = 35896193889.4640              TOTAL IN =    37608600.2522

          OUT:                                     OUT:
          ----                                     ----
              STO-SS =           0.0000                STO-SS =           0.0000     STORAGE         
              STO-SY =  8352954592.8309                STO-SY =     2616882.4239     STORAGE         
                 WEL =  5434571348.6235                   WEL =     6243156.4926     WEL_0           
                 DRN = 22108659717.1292                   DRN =    28748562.7780     DRN_0           
                 RCH =           0.0000                   RCH =           0.0000     RCH_0           

           TOTAL OUT = 35896185658.5836             TOTAL OUT =    37608601.6944

            IN - OUT =        8230.8804              IN - OUT =          -1.4422

 PERCENT DISCREPANCY =           0.00     PERCENT DISCREPANCY =          -0.00




         TIME SUMMARY AT END OF TIME STEP    1 IN STRESS PERIOD  523
                          TIME STEP LENGTH =    1.00000    
                        STRESS PERIOD TIME =    1.00000    
                     TOTAL SIMULATION TIME =    523.000    

end timestep


start timestep kper="524" kstp="1" mode="normal"


 OUTPUT CONTROL FOR STRESS PERIOD 524 IS REPEATED USING SETTINGS FROM A PREVIOUS STRESS PERIOD.


 STRESS PERIOD 524 IS TRANSIENT


 REUSING WELS FROM LAST STRESS PERIOD

 REUSING DRNS FROM LAST STRESS PERIOD

 REUSING RCHS FROM LAST STRESS PERIOD


  VOLUME BUDGET FOR ENTIRE MODEL AT END OF TIME STEP    1, STRESS PERIOD 524
  ---------------------------------------------------------------------------------------------------

     CUMULATIVE VOLUME      L**3       RATES FOR THIS TIME STEP      L**3/T          PACKAGE NAME    
     ------------------                 ------------------------                     ----------------

           IN:                                      IN:
           ---                                      ---
              STO-SS =           0.0000                STO-SS =           0.0000     STORAGE         
              STO-SY = 10198488973.5905                STO-SY =    18675774.1334     STORAGE         
                 WEL =           0.0000                   WEL =           0.0000     WEL_0           
                 DRN =           0.0000                   DRN =           0.0000     DRN_0           
                 RCH = 25736662135.4466                   RCH =    20281445.4398     RCH_0           

            TOTAL IN = 35935151109.0371              TOTAL IN =    38957219.5731

          OUT:                                     OUT:
          ----                                     ----
              STO-SS =           0.0000                STO-SS =           0.0000     STORAGE         
              STO-SY =  8355517213.1165                STO-SY =     2562620.2857     STORAGE         
                 WEL =  5440669427.3867                   WEL =     6098078.7631     WEL_0           
                 DRN = 22138956235.4800                   DRN =    30296518.3508     DRN_0           
                 RCH =           0.0000                   RCH =           0.0000     RCH_0           

           TOTAL OUT = 35935142875.9832             TOTAL OUT =    38957217.3996

            IN - OUT =        8233.0540              IN - OUT =           2.1735

 PERCENT DISCREPANCY =           0.00     PERCENT DISCREPANCY =           0.00




         TIME SUMMARY AT END OF TIME STEP    1 IN STRESS PERIOD  524
                          TIME STEP LENGTH =    1.00000    
                        STRESS PERIOD TIME =    1.00000    
                     TOTAL SIMULATION TIME =    524.000    

end timestep


start timestep kper="525" kstp="1" mode="normal"


 OUTPUT CONTROL FOR STRESS PERIOD 525 IS REPEATED USING SETTINGS FROM A PREVIOUS STRESS PERIOD.


 STRESS PERIOD 525 IS TRANSIENT


 REUSING WELS FROM LAST STRESS PERIOD

 REUSING DRNS FROM LAST STRESS PERIOD

 REUSING RCHS FROM LAST STRESS PERIOD


  VOLUME BUDGET FOR ENTIRE MODEL AT END OF TIME STEP    1, STRESS PERIOD 525
  ---------------------------------------------------------------------------------------------------

     CUMULATIVE VOLUME      L**3       RATES FOR THIS TIME STEP      L**3/T          PACKAGE NAME    
     ------------------                 ------------------------                     ----------------

           IN:                                      IN:
           ---                                      ---
              STO-SS =           0.0000                STO-SS =           0.0000     STORAGE         
              STO-SY = 10217565534.0034                STO-SY =    19076560.4129     STORAGE         
                 WEL =           0.0000                   WEL =           0.0000     WEL_0           
                 DRN =           0.0000                   DRN =           0.0000     DRN_0           
                 RCH = 25753864668.5229                   RCH =    17202533.0762     RCH_0           

            TOTAL IN = 35971430202.5262              TOTAL IN =    36279093.4891

          OUT:                                     OUT:
          ----                                     ----
              STO-SS =           0.0000                STO-SS =           0.0000     STORAGE         
              STO-SY =  8357792328.8039                STO-SY =     2275115.6874     STORAGE         
                 WEL =  5446915175.8794                   WEL =     6245748.4927     WEL_0           
                 DRN = 22166714441.9797                   DRN =    27758206.4998     DRN_0           
                 RCH =           0.0000                   RCH =           0.0000     RCH_0           

           TOTAL OUT = 35971421946.6630             TOTAL OUT =    36279070.6799

            IN - OUT =        8255.8632              IN - OUT =          22.8092

 PERCENT DISCREPANCY =           0.00     PERCENT DISCREPANCY =           0.00




         TIME SUMMARY AT END OF TIME STEP    1 IN STRESS PERIOD  525
                          TIME STEP LENGTH =    1.00000    
                        STRESS PERIOD TIME =    1.00000    
                     TOTAL SIMULATION TIME =    525.000    

end timestep


start timestep kper="526" kstp="1" mode="normal"


 OUTPUT CONTROL FOR STRESS PERIOD 526 IS REPEATED USING SETTINGS FROM A PREVIOUS STRESS PERIOD.


 STRESS PERIOD 526 IS TRANSIENT


 REUSING WELS FROM LAST STRESS PERIOD

 REUSING DRNS FROM LAST STRESS PERIOD

 REUSING RCHS FROM LAST STRESS PERIOD


  VOLUME BUDGET FOR ENTIRE MODEL AT END OF TIME STEP    1, STRESS PERIOD 526
  ---------------------------------------------------------------------------------------------------

     CUMULATIVE VOLUME      L**3       RATES FOR THIS TIME STEP      L**3/T          PACKAGE NAME    
     ------------------                 ------------------------                     ----------------

           IN:                                      IN:
           ---                                      ---
              STO-SS =           0.0000                STO-SS =           0.0000     STORAGE         
              STO-SY = 10236190474.6821                STO-SY =    18624940.6787     STORAGE         
                 WEL =           0.0000                   WEL =           0.0000     WEL_0           
                 DRN =           0.0000                   DRN =           0.0000     DRN_0           
                 RCH = 25773280916.0294                   RCH =    19416247.5065     RCH_0           

            TOTAL IN = 36009471390.7114              TOTAL IN =    38041188.1852

          OUT:                                     OUT:
          ----                                     ----
              STO-SS =           0.0000                STO-SS =           0.0000     STORAGE         
              STO-SY =  8360149961.6334                STO-SY =     2357632.8295     STORAGE         
                 WEL =  5453066766.2014                   WEL =     6151590.3219     WEL_0           
                 DRN = 22196246393.0241                   DRN =    29531951.0444     DRN_0           
                 RCH =           0.0000                   RCH =           0.0000     RCH_0           

           TOTAL OUT = 36009463120.8589             TOTAL OUT =    38041174.1958

            IN - OUT =        8269.8526              IN - OUT =          13.9894

 PERCENT DISCREPANCY =           0.00     PERCENT DISCREPANCY =           0.00




         TIME SUMMARY AT END OF TIME STEP    1 IN STRESS PERIOD  526
                          TIME STEP LENGTH =    1.00000    
                        STRESS PERIOD TIME =    1.00000    
                     TOTAL SIMULATION TIME =    526.000    

end timestep


start timestep kper="527" kstp="1" mode="normal"


 OUTPUT CONTROL FOR STRESS PERIOD 527 IS REPEATED USING SETTINGS FROM A PREVIOUS STRESS PERIOD.


 STRESS PERIOD 527 IS TRANSIENT


 REUSING WELS FROM LAST STRESS PERIOD

 REUSING DRNS FROM LAST STRESS PERIOD

 REUSING RCHS FROM LAST STRESS PERIOD


  VOLUME BUDGET FOR ENTIRE MODEL AT END OF TIME STEP    1, STRESS PERIOD 527
  ---------------------------------------------------------------------------------------------------

     CUMULATIVE VOLUME      L**3       RATES FOR THIS TIME STEP      L**3/T          PACKAGE NAME    
     ------------------                 ------------------------                     ----------------

           IN:                                      IN:
           ---                                      ---
              STO-SS =           0.0000                STO-SS =           0.0000     STORAGE         
              STO-SY = 10254559309.9886                STO-SY =    18368835.3065     STORAGE         
                 WEL =           0.0000                   WEL =           0.0000     WEL_0           
                 DRN =           0.0000                   DRN =           0.0000     DRN_0           
                 RCH = 25790738949.9224                   RCH =    17458033.8930     RCH_0           

            TOTAL IN = 36045298259.9110              TOTAL IN =    35826869.1995

          OUT:                                     OUT:
          ----                                     ----
              STO-SS =           0.0000                STO-SS =           0.0000     STORAGE         
              STO-SY =  8362556277.6965                STO-SY =     2406316.0632     STORAGE         
                 WEL =  5459281784.9828                   WEL =     6215018.7815     WEL_0           
                 DRN = 22223451908.0503                   DRN =    27205515.0262     DRN_0           
                 RCH =           0.0000                   RCH =           0.0000     RCH_0           

           TOTAL OUT = 36045289970.7297             TOTAL OUT =    35826849.8708

            IN - OUT =        8289.1813              IN - OUT =          19.3287

 PERCENT DISCREPANCY =           0.00     PERCENT DISCREPANCY =           0.00




         TIME SUMMARY AT END OF TIME STEP    1 IN STRESS PERIOD  527
                          TIME STEP LENGTH =    1.00000    
                        STRESS PERIOD TIME =    1.00000    
                     TOTAL SIMULATION TIME =    527.000    

end timestep


start timestep kper="528" kstp="1" mode="normal"


 OUTPUT CONTROL FOR STRESS PERIOD 528 IS REPEATED USING SETTINGS FROM A PREVIOUS STRESS PERIOD.


 STRESS PERIOD 528 IS TRANSIENT


 REUSING WELS FROM LAST STRESS PERIOD

 REUSING DRNS FROM LAST STRESS PERIOD

 REUSING RCHS FROM LAST STRESS PERIOD


  VOLUME BUDGET FOR ENTIRE MODEL AT END OF TIME STEP    1, STRESS PERIOD 528
  ---------------------------------------------------------------------------------------------------

     CUMULATIVE VOLUME      L**3       RATES FOR THIS TIME STEP      L**3/T          PACKAGE NAME    
     ------------------                 ------------------------                     ----------------

           IN:                                      IN:
           ---                                      ---
              STO-SS =           0.0000                STO-SS =           0.0000     STORAGE         
              STO-SY = 10273301928.7600                STO-SY =    18742618.7714     STORAGE         
                 WEL =           0.0000                   WEL =           0.0000     WEL_0           
                 DRN =           0.0000                   DRN =           0.0000     DRN_0           
                 RCH = 25808905355.8242                   RCH =    18166405.9018     RCH_0           

            TOTAL IN = 36082207284.5842              TOTAL IN =    36909024.6732

          OUT:                                     OUT:
          ----                                     ----
              STO-SS =           0.0000                STO-SS =           0.0000     STORAGE         
              STO-SY =  8364667813.8198                STO-SY =     2111536.1233     STORAGE         
                 WEL =  5465430232.5756                   WEL =     6148447.5928     WEL_0           
                 DRN = 22252100951.5109                   DRN =    28649043.4606     DRN_0           
                 RCH =           0.0000                   RCH =           0.0000     RCH_0           

           TOTAL OUT = 36082198997.9064             TOTAL OUT =    36909027.1767

            IN - OUT =        8286.6778              IN - OUT =          -2.5035

 PERCENT DISCREPANCY =           0.00     PERCENT DISCREPANCY =          -0.00




         TIME SUMMARY AT END OF TIME STEP    1 IN STRESS PERIOD  528
                          TIME STEP LENGTH =    1.00000    
                        STRESS PERIOD TIME =    1.00000    
                     TOTAL SIMULATION TIME =    528.000    

end timestep


start timestep kper="529" kstp="1" mode="normal"


 OUTPUT CONTROL FOR STRESS PERIOD 529 IS REPEATED USING SETTINGS FROM A PREVIOUS STRESS PERIOD.


 STRESS PERIOD 529 IS TRANSIENT


 REUSING WELS FROM LAST STRESS PERIOD

 REUSING DRNS FROM LAST STRESS PERIOD

 REUSING RCHS FROM LAST STRESS PERIOD


  VOLUME BUDGET FOR ENTIRE MODEL AT END OF TIME STEP    1, STRESS PERIOD 529
  ---------------------------------------------------------------------------------------------------

     CUMULATIVE VOLUME      L**3       RATES FOR THIS TIME STEP      L**3/T          PACKAGE NAME    
     ------------------                 ------------------------                     ----------------

           IN:                                      IN:
           ---                                      ---
              STO-SS =           0.0000                STO-SS =           0.0000     STORAGE         
              STO-SY = 10292052223.1598                STO-SY =    18750294.3998     STORAGE         
                 WEL =           0.0000                   WEL =           0.0000     WEL_0           
                 DRN =           0.0000                   DRN =           0.0000     DRN_0           
                 RCH = 25824507188.7036                   RCH =    15601832.8794     RCH_0           

            TOTAL IN = 36116559411.8634              TOTAL IN =    34352127.2792

          OUT:                                     OUT:
          ----                                     ----
              STO-SS =           0.0000                STO-SS =           0.0000     STORAGE         
              STO-SY =  8366605695.5577                STO-SY =     1937881.7379     STORAGE         
                 WEL =  5471548169.1567                   WEL =     6117936.5811     WEL_0           
                 DRN = 22278397263.0722                   DRN =    26296311.5613     DRN_0           
                 RCH =           0.0000                   RCH =           0.0000     RCH_0           

           TOTAL OUT = 36116551127.7866             TOTAL OUT =    34352129.8803

            IN - OUT =        8284.0767              IN - OUT =          -2.6011

 PERCENT DISCREPANCY =           0.00     PERCENT DISCREPANCY =          -0.00




         TIME SUMMARY AT END OF TIME STEP    1 IN STRESS PERIOD  529
                          TIME STEP LENGTH =    1.00000    
                        STRESS PERIOD TIME =    1.00000    
                     TOTAL SIMULATION TIME =    529.000    

end timestep


start timestep kper="530" kstp="1" mode="normal"


 OUTPUT CONTROL FOR STRESS PERIOD 530 IS REPEATED USING SETTINGS FROM A PREVIOUS STRESS PERIOD.


 STRESS PERIOD 530 IS TRANSIENT


 REUSING WELS FROM LAST STRESS PERIOD

 REUSING DRNS FROM LAST STRESS PERIOD

 REUSING RCHS FROM LAST STRESS PERIOD


  VOLUME BUDGET FOR ENTIRE MODEL AT END OF TIME STEP    1, STRESS PERIOD 530
  ---------------------------------------------------------------------------------------------------

     CUMULATIVE VOLUME      L**3       RATES FOR THIS TIME STEP      L**3/T          PACKAGE NAME    
     ------------------                 ------------------------                     ----------------

           IN:                                      IN:
           ---                                      ---
              STO-SS =           0.0000                STO-SS =           0.0000     STORAGE         
              STO-SY = 10308413820.4333                STO-SY =    16361597.2735     STORAGE         
                 WEL =           0.0000                   WEL =           0.0000     WEL_0           
                 DRN =           0.0000                   DRN =           0.0000     DRN_0           
                 RCH = 25841510053.5057                   RCH =    17002864.8022     RCH_0           

            TOTAL IN = 36149923873.9391              TOTAL IN =    33364462.0757

          OUT:                                     OUT:
          ----                                     ----
              STO-SS =           0.0000                STO-SS =           0.0000     STORAGE         
              STO-SY =  8369722806.7897                STO-SY =     3117111.2320     STORAGE         
                 WEL =  5472953161.9779                   WEL =     1404992.8212     WEL_0           
                 DRN = 22307239622.4251                   DRN =    28842359.3528     DRN_0           
                 RCH =           0.0000                   RCH =           0.0000     RCH_0           

           TOTAL OUT = 36149915591.1926             TOTAL OUT =    33364463.4060

            IN - OUT =        8282.7465              IN - OUT =          -1.3303

 PERCENT DISCREPANCY =           0.00     PERCENT DISCREPANCY =          -0.00




         TIME SUMMARY AT END OF TIME STEP    1 IN STRESS PERIOD  530
                          TIME STEP LENGTH =    1.00000    
                        STRESS PERIOD TIME =    1.00000    
                     TOTAL SIMULATION TIME =    530.000    

end timestep


start timestep kper="531" kstp="1" mode="normal"


 OUTPUT CONTROL FOR STRESS PERIOD 531 IS REPEATED USING SETTINGS FROM A PREVIOUS STRESS PERIOD.


 STRESS PERIOD 531 IS TRANSIENT


 REUSING WELS FROM LAST STRESS PERIOD

 REUSING DRNS FROM LAST STRESS PERIOD

 REUSING RCHS FROM LAST STRESS PERIOD


  VOLUME BUDGET FOR ENTIRE MODEL AT END OF TIME STEP    1, STRESS PERIOD 531
  ---------------------------------------------------------------------------------------------------

     CUMULATIVE VOLUME      L**3       RATES FOR THIS TIME STEP      L**3/T          PACKAGE NAME    
     ------------------                 ------------------------                     ----------------

           IN:                                      IN:
           ---                                      ---
              STO-SS =           0.0000                STO-SS =           0.0000     STORAGE         
              STO-SY = 10325139193.4677                STO-SY =    16725373.0344     STORAGE         
                 WEL =           0.0000                   WEL =           0.0000     WEL_0           
                 DRN =           0.0000                   DRN =           0.0000     DRN_0           
                 RCH = 25855338955.1076                   RCH =    13828901.6018     RCH_0           

            TOTAL IN = 36180478148.5753              TOTAL IN =    30554274.6362

          OUT:                                     OUT:
          ----                                     ----
              STO-SS =           0.0000                STO-SS =           0.0000     STORAGE         
              STO-SY =  8372394555.1675                STO-SY =     2671748.3779     STORAGE         
                 WEL =  5474425623.5002                   WEL =     1472461.5223     WEL_0           
                 DRN = 22333649642.7392                   DRN =    26410020.3142     DRN_0           
                 RCH =           0.0000                   RCH =           0.0000     RCH_0           

           TOTAL OUT = 36180469821.4070             TOTAL OUT =    30554230.2144

            IN - OUT =        8327.1683              IN - OUT =          44.4218

 PERCENT DISCREPANCY =           0.00     PERCENT DISCREPANCY =           0.00




         TIME SUMMARY AT END OF TIME STEP    1 IN STRESS PERIOD  531
                          TIME STEP LENGTH =    1.00000    
                        STRESS PERIOD TIME =    1.00000    
                     TOTAL SIMULATION TIME =    531.000    

end timestep


start timestep kper="532" kstp="1" mode="normal"


 OUTPUT CONTROL FOR STRESS PERIOD 532 IS REPEATED USING SETTINGS FROM A PREVIOUS STRESS PERIOD.


 STRESS PERIOD 532 IS TRANSIENT


 REUSING WELS FROM LAST STRESS PERIOD

 REUSING DRNS FROM LAST STRESS PERIOD

 REUSING RCHS FROM LAST STRESS PERIOD


  VOLUME BUDGET FOR ENTIRE MODEL AT END OF TIME STEP    1, STRESS PERIOD 532
  ---------------------------------------------------------------------------------------------------

     CUMULATIVE VOLUME      L**3       RATES FOR THIS TIME STEP      L**3/T          PACKAGE NAME    
     ------------------                 ------------------------                     ----------------

           IN:                                      IN:
           ---                                      ---
              STO-SS =           0.0000                STO-SS =           0.0000     STORAGE         
              STO-SY = 10341555998.5565                STO-SY =    16416805.0888     STORAGE         
                 WEL =           0.0000                   WEL =           0.0000     WEL_0           
                 DRN =           0.0000                   DRN =           0.0000     DRN_0           
                 RCH = 25872077312.0064                   RCH =    16738356.8988     RCH_0           

            TOTAL IN = 36213633310.5629              TOTAL IN =    33155161.9876

          OUT:                                     OUT:
          ----                                     ----
              STO-SS =           0.0000                STO-SS =           0.0000     STORAGE         
              STO-SY =  8375570618.4927                STO-SY =     3176063.3252     STORAGE         
                 WEL =  5476517803.2470                   WEL =     2092179.7468     WEL_0           
                 DRN = 22361536557.7345                   DRN =    27886914.9953     DRN_0           
                 RCH =           0.0000                   RCH =           0.0000     RCH_0           

           TOTAL OUT = 36213624979.4743             TOTAL OUT =    33155158.0673

            IN - OUT =        8331.0886              IN - OUT =           3.9203

 PERCENT DISCREPANCY =           0.00     PERCENT DISCREPANCY =           0.00




         TIME SUMMARY AT END OF TIME STEP    1 IN STRESS PERIOD  532
                          TIME STEP LENGTH =    1.00000    
                        STRESS PERIOD TIME =    1.00000    
                     TOTAL SIMULATION TIME =    532.000    

end timestep


start timestep kper="533" kstp="1" mode="normal"


 OUTPUT CONTROL FOR STRESS PERIOD 533 IS REPEATED USING SETTINGS FROM A PREVIOUS STRESS PERIOD.


 STRESS PERIOD 533 IS TRANSIENT


 REUSING WELS FROM LAST STRESS PERIOD

 REUSING DRNS FROM LAST STRESS PERIOD

 REUSING RCHS FROM LAST STRESS PERIOD


  VOLUME BUDGET FOR ENTIRE MODEL AT END OF TIME STEP    1, STRESS PERIOD 533
  ---------------------------------------------------------------------------------------------------

     CUMULATIVE VOLUME      L**3       RATES FOR THIS TIME STEP      L**3/T          PACKAGE NAME    
     ------------------                 ------------------------                     ----------------

           IN:                                      IN:
           ---                                      ---
              STO-SS =           0.0000                STO-SS =           0.0000     STORAGE         
              STO-SY = 10358351967.0024                STO-SY =    16795968.4458     STORAGE         
                 WEL =           0.0000                   WEL =           0.0000     WEL_0           
                 DRN =           0.0000                   DRN =           0.0000     DRN_0           
                 RCH = 25887756894.5502                   RCH =    15679582.5438     RCH_0           

            TOTAL IN = 36246108861.5525              TOTAL IN =    32475550.9896

          OUT:                                     OUT:
          ----                                     ----
              STO-SS =           0.0000                STO-SS =           0.0000     STORAGE         
              STO-SY =  8379369201.6988                STO-SY =     3798583.2060     STORAGE         
                 WEL =  5479244610.0715                   WEL =     2726806.8245     WEL_0           
                 DRN = 22387486718.6107                   DRN =    25950160.8762     DRN_0           
                 RCH =           0.0000                   RCH =           0.0000     RCH_0           

           TOTAL OUT = 36246100530.3810             TOTAL OUT =    32475550.9067

            IN - OUT =        8331.1715              IN - OUT =       8.2916E-02

 PERCENT DISCREPANCY =           0.00     PERCENT DISCREPANCY =           0.00




         TIME SUMMARY AT END OF TIME STEP    1 IN STRESS PERIOD  533
                          TIME STEP LENGTH =    1.00000    
                        STRESS PERIOD TIME =    1.00000    
                     TOTAL SIMULATION TIME =    533.000    

end timestep


start timestep kper="534" kstp="1" mode="normal"


 OUTPUT CONTROL FOR STRESS PERIOD 534 IS REPEATED USING SETTINGS FROM A PREVIOUS STRESS PERIOD.


 STRESS PERIOD 534 IS TRANSIENT


 REUSING WELS FROM LAST STRESS PERIOD

 REUSING DRNS FROM LAST STRESS PERIOD

 REUSING RCHS FROM LAST STRESS PERIOD


  VOLUME BUDGET FOR ENTIRE MODEL AT END OF TIME STEP    1, STRESS PERIOD 534
  ---------------------------------------------------------------------------------------------------

     CUMULATIVE VOLUME      L**3       RATES FOR THIS TIME STEP      L**3/T          PACKAGE NAME    
     ------------------                 ------------------------                     ----------------

           IN:                                      IN:
           ---                                      ---
              STO-SS =           0.0000                STO-SS =           0.0000     STORAGE         
              STO-SY = 10375326585.7135                STO-SY =    16974618.7112     STORAGE         
                 WEL =           0.0000                   WEL =           0.0000     WEL_0           
                 DRN =           0.0000                   DRN =           0.0000     DRN_0           
                 RCH = 25901850989.9431                   RCH =    14094095.3930     RCH_0           

            TOTAL IN = 36277177575.6567              TOTAL IN =    31068714.1041

          OUT:                                     OUT:
          ----                                     ----
              STO-SS =           0.0000                STO-SS =           0.0000     STORAGE         
              STO-SY =  8381631002.6544                STO-SY =     2261800.9557     STORAGE         
                 WEL =  5481062824.8473                   WEL =     1818214.7757     WEL_0           
                 DRN = 22414475362.8177                   DRN =    26988644.2070     DRN_0           
                 RCH =           0.0000                   RCH =           0.0000     RCH_0           

           TOTAL OUT = 36277169190.3194             TOTAL OUT =    31068659.9384

            IN - OUT =        8385.3373              IN - OUT =          54.1657

 PERCENT DISCREPANCY =           0.00     PERCENT DISCREPANCY =           0.00




         TIME SUMMARY AT END OF TIME STEP    1 IN STRESS PERIOD  534
                          TIME STEP LENGTH =    1.00000    
                        STRESS PERIOD TIME =    1.00000    
                     TOTAL SIMULATION TIME =    534.000    

end timestep


start timestep kper="535" kstp="1" mode="normal"


 OUTPUT CONTROL FOR STRESS PERIOD 535 IS REPEATED USING SETTINGS FROM A PREVIOUS STRESS PERIOD.


 STRESS PERIOD 535 IS TRANSIENT


 REUSING WELS FROM LAST STRESS PERIOD

 REUSING DRNS FROM LAST STRESS PERIOD

 REUSING RCHS FROM LAST STRESS PERIOD


  VOLUME BUDGET FOR ENTIRE MODEL AT END OF TIME STEP    1, STRESS PERIOD 535
  ---------------------------------------------------------------------------------------------------

     CUMULATIVE VOLUME      L**3       RATES FOR THIS TIME STEP      L**3/T          PACKAGE NAME    
     ------------------                 ------------------------                     ----------------

           IN:                                      IN:
           ---                                      ---
              STO-SS =           0.0000                STO-SS =           0.0000     STORAGE         
              STO-SY = 10392087210.4669                STO-SY =    16760624.7533     STORAGE         
                 WEL =           0.0000                   WEL =           0.0000     WEL_0           
                 DRN =           0.0000                   DRN =           0.0000     DRN_0           
                 RCH = 25916762027.1241                   RCH =    14911037.1809     RCH_0           

            TOTAL IN = 36308849237.5909              TOTAL IN =    31671661.9343

          OUT:                                     OUT:
          ----                                     ----
              STO-SS =           0.0000                STO-SS =           0.0000     STORAGE         
              STO-SY =  8385181011.9233                STO-SY =     3550009.2688     STORAGE         
                 WEL =  5483631403.3702                   WEL =     2568578.5229     WEL_0           
                 DRN = 22440028409.1793                   DRN =    25553046.3616     DRN_0           
                 RCH =           0.0000                   RCH =           0.0000     RCH_0           

           TOTAL OUT = 36308840824.4727             TOTAL OUT =    31671634.1533

            IN - OUT =        8413.1182              IN - OUT =          27.7810

 PERCENT DISCREPANCY =           0.00     PERCENT DISCREPANCY =           0.00




         TIME SUMMARY AT END OF TIME STEP    1 IN STRESS PERIOD  535
                          TIME STEP LENGTH =    1.00000    
                        STRESS PERIOD TIME =    1.00000    
                     TOTAL SIMULATION TIME =    535.000    

end timestep


start timestep kper="536" kstp="1" mode="normal"


 OUTPUT CONTROL FOR STRESS PERIOD 536 IS REPEATED USING SETTINGS FROM A PREVIOUS STRESS PERIOD.


 STRESS PERIOD 536 IS TRANSIENT


 REUSING WELS FROM LAST STRESS PERIOD

 REUSING DRNS FROM LAST STRESS PERIOD

 REUSING RCHS FROM LAST STRESS PERIOD


  VOLUME BUDGET FOR ENTIRE MODEL AT END OF TIME STEP    1, STRESS PERIOD 536
  ---------------------------------------------------------------------------------------------------

     CUMULATIVE VOLUME      L**3       RATES FOR THIS TIME STEP      L**3/T          PACKAGE NAME    
     ------------------                 ------------------------                     ----------------

           IN:                                      IN:
           ---                                      ---
              STO-SS =           0.0000                STO-SS =           0.0000     STORAGE         
              STO-SY = 10409430748.9479                STO-SY =    17343538.4810     STORAGE         
                 WEL =           0.0000                   WEL =           0.0000     WEL_0           
                 DRN =           0.0000                   DRN =           0.0000     DRN_0           
                 RCH = 25929275585.7298                   RCH =    12513558.6058     RCH_0           

            TOTAL IN = 36338706334.6777              TOTAL IN =    29857097.0868

          OUT:                                     OUT:
          ----                                     ----
              STO-SS =           0.0000                STO-SS =           0.0000     STORAGE         
              STO-SY =  8387117816.0357                STO-SY =     1936804.1124     STORAGE         
                 WEL =  5485215434.9916                   WEL =     1584031.6215     WEL_0           
                 DRN = 22466364671.2806                   DRN =    26336262.1013     DRN_0           
                 RCH =           0.0000                   RCH =           0.0000     RCH_0           

           TOTAL OUT = 36338697922.3080             TOTAL OUT =    29857097.8352

            IN - OUT =        8412.3698              IN - OUT =          -0.7485

 PERCENT DISCREPANCY =           0.00     PERCENT DISCREPANCY =          -0.00




         TIME SUMMARY AT END OF TIME STEP    1 IN STRESS PERIOD  536
                          TIME STEP LENGTH =    1.00000    
                        STRESS PERIOD TIME =    1.00000    
                     TOTAL SIMULATION TIME =    536.000    

end timestep


start timestep kper="537" kstp="1" mode="normal"


 OUTPUT CONTROL FOR STRESS PERIOD 537 IS REPEATED USING SETTINGS FROM A PREVIOUS STRESS PERIOD.


 STRESS PERIOD 537 IS TRANSIENT


 REUSING WELS FROM LAST STRESS PERIOD

 REUSING DRNS FROM LAST STRESS PERIOD

 REUSING RCHS FROM LAST STRESS PERIOD


  VOLUME BUDGET FOR ENTIRE MODEL AT END OF TIME STEP    1, STRESS PERIOD 537
  ---------------------------------------------------------------------------------------------------

     CUMULATIVE VOLUME      L**3       RATES FOR THIS TIME STEP      L**3/T          PACKAGE NAME    
     ------------------                 ------------------------                     ----------------

           IN:                                      IN:
           ---                                      ---
              STO-SS =           0.0000                STO-SS =           0.0000     STORAGE         
              STO-SY = 10426581473.3467                STO-SY =    17150724.3988     STORAGE         
                 WEL =           0.0000                   WEL =           0.0000     WEL_0           
                 DRN =           0.0000                   DRN =           0.0000     DRN_0           
                 RCH = 25940111968.4390                   RCH =    10836382.7092     RCH_0           

            TOTAL IN = 36366693441.7857              TOTAL IN =    27987107.1080

          OUT:                                     OUT:
          ----                                     ----
              STO-SS =           0.0000                STO-SS =           0.0000     STORAGE         
              STO-SY =  8389102947.9705                STO-SY =     1985131.9348     STORAGE         
                 WEL =  5486885177.0358                   WEL =     1669742.0442     WEL_0           
                 DRN = 22490696904.2616                   DRN =    24332232.9810     DRN_0           
                 RCH =           0.0000                   RCH =           0.0000     RCH_0           

           TOTAL OUT = 36366685029.2680             TOTAL OUT =    27987106.9600

            IN - OUT =        8412.5177              IN - OUT =           0.1480

 PERCENT DISCREPANCY =           0.00     PERCENT DISCREPANCY =           0.00




         TIME SUMMARY AT END OF TIME STEP    1 IN STRESS PERIOD  537
                          TIME STEP LENGTH =    1.00000    
                        STRESS PERIOD TIME =    1.00000    
                     TOTAL SIMULATION TIME =    537.000    

end timestep


start timestep kper="538" kstp="1" mode="normal"


 OUTPUT CONTROL FOR STRESS PERIOD 538 IS REPEATED USING SETTINGS FROM A PREVIOUS STRESS PERIOD.


 STRESS PERIOD 538 IS TRANSIENT


 REUSING WELS FROM LAST STRESS PERIOD

 REUSING DRNS FROM LAST STRESS PERIOD

 REUSING RCHS FROM LAST STRESS PERIOD


  VOLUME BUDGET FOR ENTIRE MODEL AT END OF TIME STEP    1, STRESS PERIOD 538
  ---------------------------------------------------------------------------------------------------

     CUMULATIVE VOLUME      L**3       RATES FOR THIS TIME STEP      L**3/T          PACKAGE NAME    
     ------------------                 ------------------------                     ----------------

           IN:                                      IN:
           ---                                      ---
              STO-SS =           0.0000                STO-SS =           0.0000     STORAGE         
              STO-SY = 10443558326.4073                STO-SY =    16976853.0606     STORAGE         
                 WEL =           0.0000                   WEL =           0.0000     WEL_0           
                 DRN =           0.0000                   DRN =           0.0000     DRN_0           
                 RCH = 25954129275.3529                   RCH =    14017306.9139     RCH_0           

            TOTAL IN = 36397687601.7601              TOTAL IN =    30994159.9744

          OUT:                                     OUT:
          ----                                     ----
              STO-SS =           0.0000                STO-SS =           0.0000     STORAGE         
              STO-SY =  8391842262.4923                STO-SY =     2739314.5218     STORAGE         
                 WEL =  5488841146.7209                   WEL =     1955969.6850     WEL_0           
                 DRN = 22516995728.7258                   DRN =    26298824.4642     DRN_0           
                 RCH =           0.0000                   RCH =           0.0000     RCH_0           

           TOTAL OUT = 36397679137.9390             TOTAL OUT =    30994108.6710

            IN - OUT =        8463.8211              IN - OUT =          51.3034

 PERCENT DISCREPANCY =           0.00     PERCENT DISCREPANCY =           0.00




         TIME SUMMARY AT END OF TIME STEP    1 IN STRESS PERIOD  538
                          TIME STEP LENGTH =    1.00000    
                        STRESS PERIOD TIME =    1.00000    
                     TOTAL SIMULATION TIME =    538.000    

end timestep


start timestep kper="539" kstp="1" mode="normal"


 OUTPUT CONTROL FOR STRESS PERIOD 539 IS REPEATED USING SETTINGS FROM A PREVIOUS STRESS PERIOD.


 STRESS PERIOD 539 IS TRANSIENT


 REUSING WELS FROM LAST STRESS PERIOD

 REUSING DRNS FROM LAST STRESS PERIOD

 REUSING RCHS FROM LAST STRESS PERIOD


  VOLUME BUDGET FOR ENTIRE MODEL AT END OF TIME STEP    1, STRESS PERIOD 539
  ---------------------------------------------------------------------------------------------------

     CUMULATIVE VOLUME      L**3       RATES FOR THIS TIME STEP      L**3/T          PACKAGE NAME    
     ------------------                 ------------------------                     ----------------

           IN:                                      IN:
           ---                                      ---
              STO-SS =           0.0000                STO-SS =           0.0000     STORAGE         
              STO-SY = 10460662210.6018                STO-SY =    17103884.1945     STORAGE         
                 WEL =           0.0000                   WEL =           0.0000     WEL_0           
                 DRN =           0.0000                   DRN =           0.0000     DRN_0           
                 RCH = 25965397215.5978                   RCH =    11267940.2450     RCH_0           

            TOTAL IN = 36426059426.1996              TOTAL IN =    28371824.4395

          OUT:                                     OUT:
          ----                                     ----
              STO-SS =           0.0000                STO-SS =           0.0000     STORAGE         
              STO-SY =  8394370578.5208                STO-SY =     2528316.0285     STORAGE         
                 WEL =  5490784937.8389                   WEL =     1943791.1180     WEL_0           
                 DRN = 22540895429.4233                   DRN =    23899700.6975     DRN_0           
                 RCH =           0.0000                   RCH =           0.0000     RCH_0           

           TOTAL OUT = 36426050945.7830             TOTAL OUT =    28371807.8440

            IN - OUT =        8480.4166              IN - OUT =          16.5955

 PERCENT DISCREPANCY =           0.00     PERCENT DISCREPANCY =           0.00




         TIME SUMMARY AT END OF TIME STEP    1 IN STRESS PERIOD  539
                          TIME STEP LENGTH =    1.00000    
                        STRESS PERIOD TIME =    1.00000    
                     TOTAL SIMULATION TIME =    539.000    

end timestep


start timestep kper="540" kstp="1" mode="normal"


 OUTPUT CONTROL FOR STRESS PERIOD 540 IS REPEATED USING SETTINGS FROM A PREVIOUS STRESS PERIOD.


 STRESS PERIOD 540 IS TRANSIENT


 REUSING WELS FROM LAST STRESS PERIOD

 REUSING DRNS FROM LAST STRESS PERIOD

 REUSING RCHS FROM LAST STRESS PERIOD


  VOLUME BUDGET FOR ENTIRE MODEL AT END OF TIME STEP    1, STRESS PERIOD 540
  ---------------------------------------------------------------------------------------------------

     CUMULATIVE VOLUME      L**3       RATES FOR THIS TIME STEP      L**3/T          PACKAGE NAME    
     ------------------                 ------------------------                     ----------------

           IN:                                      IN:
           ---                                      ---
              STO-SS =           0.0000                STO-SS =           0.0000     STORAGE         
              STO-SY = 10477900134.5567                STO-SY =    17237923.9549     STORAGE         
                 WEL =           0.0000                   WEL =           0.0000     WEL_0           
                 DRN =           0.0000                   DRN =           0.0000     DRN_0           
                 RCH = 25976296110.0771                   RCH =    10898894.4793     RCH_0           

            TOTAL IN = 36454196244.6339              TOTAL IN =    28136818.4342

          OUT:                                     OUT:
          ----                                     ----
              STO-SS =           0.0000                STO-SS =           0.0000     STORAGE         
              STO-SY =  8395949110.4496                STO-SY =     1578531.9288     STORAGE         
                 WEL =  5492178876.2503                   WEL =     1393938.4114     WEL_0           
                 DRN = 22566059778.3036                   DRN =    25164348.8803     DRN_0           
                 RCH =           0.0000                   RCH =           0.0000     RCH_0           

           TOTAL OUT = 36454187765.0035             TOTAL OUT =    28136819.2206

            IN - OUT =        8479.6303              IN - OUT =          -0.7863

 PERCENT DISCREPANCY =           0.00     PERCENT DISCREPANCY =          -0.00




         TIME SUMMARY AT END OF TIME STEP    1 IN STRESS PERIOD  540
                          TIME STEP LENGTH =    1.00000    
                        STRESS PERIOD TIME =    1.00000    
                     TOTAL SIMULATION TIME =    540.000    

end timestep


start timestep kper="541" kstp="1" mode="normal"


 OUTPUT CONTROL FOR STRESS PERIOD 541 IS REPEATED USING SETTINGS FROM A PREVIOUS STRESS PERIOD.


 STRESS PERIOD 541 IS TRANSIENT


 REUSING WELS FROM LAST STRESS PERIOD

 REUSING DRNS FROM LAST STRESS PERIOD

 REUSING RCHS FROM LAST STRESS PERIOD


  VOLUME BUDGET FOR ENTIRE MODEL AT END OF TIME STEP    1, STRESS PERIOD 541
  ---------------------------------------------------------------------------------------------------

     CUMULATIVE VOLUME      L**3       RATES FOR THIS TIME STEP      L**3/T          PACKAGE NAME    
     ------------------                 ------------------------                     ----------------

           IN:                                      IN:
           ---                                      ---
              STO-SS =           0.0000                STO-SS =           0.0000     STORAGE         
              STO-SY = 10494815378.2709                STO-SY =    16915243.7141     STORAGE         
                 WEL =           0.0000                   WEL =           0.0000     WEL_0           
                 DRN =           0.0000                   DRN =           0.0000     DRN_0           
                 RCH = 25986078429.7810                   RCH =     9782319.7039     RCH_0           

            TOTAL IN = 36480893808.0519              TOTAL IN =    26697563.4180

          OUT:                                     OUT:
          ----                                     ----
              STO-SS =           0.0000                STO-SS =           0.0000     STORAGE         
              STO-SY =  8397673356.4151                STO-SY =     1724245.9655     STORAGE         
                 WEL =  5493781755.4475                   WEL =     1602879.1972     WEL_0           
                 DRN = 22589430186.9365                   DRN =    23370408.6329     DRN_0           
                 RCH =           0.0000                   RCH =           0.0000     RCH_0           

           TOTAL OUT = 36480885298.7991             TOTAL OUT =    26697533.7955

            IN - OUT =        8509.2528              IN - OUT =          29.6225

 PERCENT DISCREPANCY =           0.00     PERCENT DISCREPANCY =           0.00




         TIME SUMMARY AT END OF TIME STEP    1 IN STRESS PERIOD  541
                          TIME STEP LENGTH =    1.00000    
                        STRESS PERIOD TIME =    1.00000    
                     TOTAL SIMULATION TIME =    541.000    

end timestep


start timestep kper="542" kstp="1" mode="normal"


 OUTPUT CONTROL FOR STRESS PERIOD 542 IS REPEATED USING SETTINGS FROM A PREVIOUS STRESS PERIOD.


 STRESS PERIOD 542 IS TRANSIENT


 REUSING WELS FROM LAST STRESS PERIOD

 REUSING DRNS FROM LAST STRESS PERIOD

 REUSING RCHS FROM LAST STRESS PERIOD


  VOLUME BUDGET FOR ENTIRE MODEL AT END OF TIME STEP    1, STRESS PERIOD 542
  ---------------------------------------------------------------------------------------------------

     CUMULATIVE VOLUME      L**3       RATES FOR THIS TIME STEP      L**3/T          PACKAGE NAME    
     ------------------                 ------------------------                     ----------------

           IN:                                      IN:
           ---                                      ---
              STO-SS =           0.0000                STO-SS =           0.0000     STORAGE         
              STO-SY = 10512004919.6168                STO-SY =    17189541.3459     STORAGE         
                 WEL =           0.0000                   WEL =           0.0000     WEL_0           
                 DRN =           0.0000                   DRN =           0.0000     DRN_0           
                 RCH = 25996268775.6562                   RCH =    10190345.8752     RCH_0           

            TOTAL IN = 36508273695.2730              TOTAL IN =    27379887.2212

          OUT:                                     OUT:
          ----                                     ----
              STO-SS =           0.0000                STO-SS =           0.0000     STORAGE         
              STO-SY =  8399099427.5286                STO-SY =     1426071.1135     STORAGE         
                 WEL =  5495141224.9059                   WEL =     1359469.4585     WEL_0           
                 DRN = 22614024532.1053                   DRN =    24594345.1688     DRN_0           
                 RCH =           0.0000                   RCH =           0.0000     RCH_0           

           TOTAL OUT = 36508265184.5399             TOTAL OUT =    27379885.7408

            IN - OUT =        8510.7332              IN - OUT =           1.4804

 PERCENT DISCREPANCY =           0.00     PERCENT DISCREPANCY =           0.00




         TIME SUMMARY AT END OF TIME STEP    1 IN STRESS PERIOD  542
                          TIME STEP LENGTH =    1.00000    
                        STRESS PERIOD TIME =    1.00000    
                     TOTAL SIMULATION TIME =    542.000    

end timestep


start timestep kper="543" kstp="1" mode="normal"


 OUTPUT CONTROL FOR STRESS PERIOD 543 IS REPEATED USING SETTINGS FROM A PREVIOUS STRESS PERIOD.


 STRESS PERIOD 543 IS TRANSIENT


 REUSING WELS FROM LAST STRESS PERIOD

 REUSING DRNS FROM LAST STRESS PERIOD

 REUSING RCHS FROM LAST STRESS PERIOD


  VOLUME BUDGET FOR ENTIRE MODEL AT END OF TIME STEP    1, STRESS PERIOD 543
  ---------------------------------------------------------------------------------------------------

     CUMULATIVE VOLUME      L**3       RATES FOR THIS TIME STEP      L**3/T          PACKAGE NAME    
     ------------------                 ------------------------                     ----------------

           IN:                                      IN:
           ---                                      ---
              STO-SS =           0.0000                STO-SS =           0.0000     STORAGE         
              STO-SY = 10529169903.9287                STO-SY =    17164984.3119     STORAGE         
                 WEL =           0.0000                   WEL =           0.0000     WEL_0           
                 DRN =           0.0000                   DRN =           0.0000     DRN_0           
                 RCH = 26004660639.5789                   RCH =     8391863.9227     RCH_0           

            TOTAL IN = 36533830543.5077              TOTAL IN =    25556848.2346

          OUT:                                     OUT:
          ----                                     ----
              STO-SS =           0.0000                STO-SS =           0.0000     STORAGE         
              STO-SY =  8400423658.3324                STO-SY =     1324230.8038     STORAGE         
                 WEL =  5496579999.6041                   WEL =     1438774.6982     WEL_0           
                 DRN = 22636818376.0386                   DRN =    22793843.9333     DRN_0           
                 RCH =           0.0000                   RCH =           0.0000     RCH_0           

           TOTAL OUT = 36533822033.9752             TOTAL OUT =    25556849.4353

            IN - OUT =        8509.5325              IN - OUT =          -1.2007

 PERCENT DISCREPANCY =           0.00     PERCENT DISCREPANCY =          -0.00




         TIME SUMMARY AT END OF TIME STEP    1 IN STRESS PERIOD  543
                          TIME STEP LENGTH =    1.00000    
                        STRESS PERIOD TIME =    1.00000    
                     TOTAL SIMULATION TIME =    543.000    

end timestep


start timestep kper="544" kstp="1" mode="normal"


 OUTPUT CONTROL FOR STRESS PERIOD 544 IS REPEATED USING SETTINGS FROM A PREVIOUS STRESS PERIOD.


 STRESS PERIOD 544 IS TRANSIENT


 REUSING WELS FROM LAST STRESS PERIOD

 REUSING DRNS FROM LAST STRESS PERIOD

 REUSING RCHS FROM LAST STRESS PERIOD


  VOLUME BUDGET FOR ENTIRE MODEL AT END OF TIME STEP    1, STRESS PERIOD 544
  ---------------------------------------------------------------------------------------------------

     CUMULATIVE VOLUME      L**3       RATES FOR THIS TIME STEP      L**3/T          PACKAGE NAME    
     ------------------                 ------------------------                     ----------------

           IN:                                      IN:
           ---                                      ---
              STO-SS =           0.0000                STO-SS =           0.0000     STORAGE         
              STO-SY = 10546288408.7203                STO-SY =    17118504.7916     STORAGE         
                 WEL =           0.0000                   WEL =           0.0000     WEL_0           
                 DRN =           0.0000                   DRN =           0.0000     DRN_0           
                 RCH = 26014519956.0412                   RCH =     9859316.4623     RCH_0           

            TOTAL IN = 36560808364.7615              TOTAL IN =    26977821.2539

          OUT:                                     OUT:
          ----                                     ----
              STO-SS =           0.0000                STO-SS =           0.0000     STORAGE         
              STO-SY =  8401775653.4768                STO-SY =     1351995.1444     STORAGE         
                 WEL =  5498045764.6483                   WEL =     1465765.0442     WEL_0           
                 DRN = 22660978408.7311                   DRN =    24160032.6925     DRN_0           
                 RCH =           0.0000                   RCH =           0.0000     RCH_0           

           TOTAL OUT = 36560799826.8562             TOTAL OUT =    26977792.8811

            IN - OUT =        8537.9053              IN - OUT =          28.3728

 PERCENT DISCREPANCY =           0.00     PERCENT DISCREPANCY =           0.00




         TIME SUMMARY AT END OF TIME STEP    1 IN STRESS PERIOD  544
                          TIME STEP LENGTH =    1.00000    
                        STRESS PERIOD TIME =    1.00000    
                     TOTAL SIMULATION TIME =    544.000    

end timestep


start timestep kper="545" kstp="1" mode="normal"


 OUTPUT CONTROL FOR STRESS PERIOD 545 IS REPEATED USING SETTINGS FROM A PREVIOUS STRESS PERIOD.


 STRESS PERIOD 545 IS TRANSIENT


 REUSING WELS FROM LAST STRESS PERIOD

 REUSING DRNS FROM LAST STRESS PERIOD

 REUSING RCHS FROM LAST STRESS PERIOD


  VOLUME BUDGET FOR ENTIRE MODEL AT END OF TIME STEP    1, STRESS PERIOD 545
  ---------------------------------------------------------------------------------------------------

     CUMULATIVE VOLUME      L**3       RATES FOR THIS TIME STEP      L**3/T          PACKAGE NAME    
     ------------------                 ------------------------                     ----------------

           IN:                                      IN:
           ---                                      ---
              STO-SS =           0.0000                STO-SS =           0.0000     STORAGE         
              STO-SY = 10563138398.3107                STO-SY =    16849989.5904     STORAGE         
                 WEL =           0.0000                   WEL =           0.0000     WEL_0           
                 DRN =           0.0000                   DRN =           0.0000     DRN_0           
                 RCH = 26023096169.4869                   RCH =     8576213.4457     RCH_0           

            TOTAL IN = 36586234567.7976              TOTAL IN =    25426203.0361

          OUT:                                     OUT:
          ----                                     ----
              STO-SS =           0.0000                STO-SS =           0.0000     STORAGE         
              STO-SY =  8403205065.5349                STO-SY =     1429412.0581     STORAGE         
                 WEL =  5499683745.2136                   WEL =     1637980.5653     WEL_0           
                 DRN = 22683337214.4585                   DRN =    22358805.7274     DRN_0           
                 RCH =           0.0000                   RCH =           0.0000     RCH_0           

           TOTAL OUT = 36586226025.2070             TOTAL OUT =    25426198.3508

            IN - OUT =        8542.5906              IN - OUT =           4.6853

 PERCENT DISCREPANCY =           0.00     PERCENT DISCREPANCY =           0.00




         TIME SUMMARY AT END OF TIME STEP    1 IN STRESS PERIOD  545
                          TIME STEP LENGTH =    1.00000    
                        STRESS PERIOD TIME =    1.00000    
                     TOTAL SIMULATION TIME =    545.000    

end timestep


start timestep kper="546" kstp="1" mode="normal"


 OUTPUT CONTROL FOR STRESS PERIOD 546 IS REPEATED USING SETTINGS FROM A PREVIOUS STRESS PERIOD.


 STRESS PERIOD 546 IS TRANSIENT


 REUSING WELS FROM LAST STRESS PERIOD

 REUSING DRNS FROM LAST STRESS PERIOD

 REUSING RCHS FROM LAST STRESS PERIOD


  VOLUME BUDGET FOR ENTIRE MODEL AT END OF TIME STEP    1, STRESS PERIOD 546
  ---------------------------------------------------------------------------------------------------

     CUMULATIVE VOLUME      L**3       RATES FOR THIS TIME STEP      L**3/T          PACKAGE NAME    
     ------------------                 ------------------------                     ----------------

           IN:                                      IN:
           ---                                      ---
              STO-SS =           0.0000                STO-SS =           0.0000     STORAGE         
              STO-SY = 10579991631.8925                STO-SY =    16853233.5818     STORAGE         
                 WEL =           0.0000                   WEL =           0.0000     WEL_0           
                 DRN =           0.0000                   DRN =           0.0000     DRN_0           
                 RCH = 26032665789.2493                   RCH =     9569619.7624     RCH_0           

            TOTAL IN = 36612657421.1418              TOTAL IN =    26422853.3442

          OUT:                                     OUT:
          ----                                     ----
              STO-SS =           0.0000                STO-SS =           0.0000     STORAGE         
              STO-SY =  8404509694.0632                STO-SY =     1304628.5283     STORAGE         
                 WEL =  5501080089.3988                   WEL =     1396344.1852     WEL_0           
                 DRN = 22707059095.1050                   DRN =    23721880.6465     DRN_0           
                 RCH =           0.0000                   RCH =           0.0000     RCH_0           

           TOTAL OUT = 36612648878.5670             TOTAL OUT =    26422853.3601

            IN - OUT =        8542.5747              IN - OUT =      -1.5876E-02

 PERCENT DISCREPANCY =           0.00     PERCENT DISCREPANCY =          -0.00




         TIME SUMMARY AT END OF TIME STEP    1 IN STRESS PERIOD  546
                          TIME STEP LENGTH =    1.00000    
                        STRESS PERIOD TIME =    1.00000    
                     TOTAL SIMULATION TIME =    546.000    

end timestep


start timestep kper="547" kstp="1" mode="normal"


 OUTPUT CONTROL FOR STRESS PERIOD 547 IS REPEATED USING SETTINGS FROM A PREVIOUS STRESS PERIOD.


 STRESS PERIOD 547 IS TRANSIENT


 REUSING WELS FROM LAST STRESS PERIOD

 REUSING DRNS FROM LAST STRESS PERIOD

 REUSING RCHS FROM LAST STRESS PERIOD


  VOLUME BUDGET FOR ENTIRE MODEL AT END OF TIME STEP    1, STRESS PERIOD 547
  ---------------------------------------------------------------------------------------------------

     CUMULATIVE VOLUME      L**3       RATES FOR THIS TIME STEP      L**3/T          PACKAGE NAME    
     ------------------                 ------------------------                     ----------------

           IN:                                      IN:
           ---                                      ---
              STO-SS =           0.0000                STO-SS =           0.0000     STORAGE         
              STO-SY = 10596518006.6571                STO-SY =    16526374.7646     STORAGE         
                 WEL =           0.0000                   WEL =           0.0000     WEL_0           
                 DRN =           0.0000                   DRN =           0.0000     DRN_0           
                 RCH = 26040657252.0930                   RCH =     7991462.8437     RCH_0           

            TOTAL IN = 36637175258.7501              TOTAL IN =    24517837.6083

          OUT:                                     OUT:
          ----                                     ----
              STO-SS =           0.0000                STO-SS =           0.0000     STORAGE         
              STO-SY =  8405744637.2410                STO-SY =     1234943.1778     STORAGE         
                 WEL =  5502432553.7112                   WEL =     1352464.3124     WEL_0           
                 DRN = 22728989525.5478                   DRN =    21930430.4427     DRN_0           
                 RCH =           0.0000                   RCH =           0.0000     RCH_0           

           TOTAL OUT = 36637166716.4999             TOTAL OUT =    24517837.9329

            IN - OUT =        8542.2502              IN - OUT =          -0.3246

 PERCENT DISCREPANCY =           0.00     PERCENT DISCREPANCY =          -0.00




         TIME SUMMARY AT END OF TIME STEP    1 IN STRESS PERIOD  547
                          TIME STEP LENGTH =    1.00000    
                        STRESS PERIOD TIME =    1.00000    
                     TOTAL SIMULATION TIME =    547.000    

end timestep


start timestep kper="548" kstp="1" mode="normal"


 OUTPUT CONTROL FOR STRESS PERIOD 548 IS REPEATED USING SETTINGS FROM A PREVIOUS STRESS PERIOD.


 STRESS PERIOD 548 IS TRANSIENT


 REUSING WELS FROM LAST STRESS PERIOD

 REUSING DRNS FROM LAST STRESS PERIOD

 REUSING RCHS FROM LAST STRESS PERIOD


  VOLUME BUDGET FOR ENTIRE MODEL AT END OF TIME STEP    1, STRESS PERIOD 548
  ---------------------------------------------------------------------------------------------------

     CUMULATIVE VOLUME      L**3       RATES FOR THIS TIME STEP      L**3/T          PACKAGE NAME    
     ------------------                 ------------------------                     ----------------

           IN:                                      IN:
           ---                                      ---
              STO-SS =           0.0000                STO-SS =           0.0000     STORAGE         
              STO-SY = 10612123973.6148                STO-SY =    15605966.9576     STORAGE         
                 WEL =           0.0000                   WEL =           0.0000     WEL_0           
                 DRN =           0.0000                   DRN =           0.0000     DRN_0           
                 RCH = 26054833526.9444                   RCH =    14176274.8514     RCH_0           

            TOTAL IN = 36666957500.5592              TOTAL IN =    29782241.8090

          OUT:                                     OUT:
          ----                                     ----
              STO-SS =           0.0000                STO-SS =           0.0000     STORAGE         
              STO-SY =  8409465050.8630                STO-SY =     3720413.6220     STORAGE         
                 WEL =  5504305358.2539                   WEL =     1872804.5427     WEL_0           
                 DRN = 22753178553.4750                   DRN =    24189027.9272     DRN_0           
                 RCH =           0.0000                   RCH =           0.0000     RCH_0           

           TOTAL OUT = 36666948962.5919             TOTAL OUT =    29782246.0919

            IN - OUT =        8537.9673              IN - OUT =          -4.2829

 PERCENT DISCREPANCY =           0.00     PERCENT DISCREPANCY =          -0.00




         TIME SUMMARY AT END OF TIME STEP    1 IN STRESS PERIOD  548
                          TIME STEP LENGTH =    1.00000    
                        STRESS PERIOD TIME =    1.00000    
                     TOTAL SIMULATION TIME =    548.000    

end timestep


start timestep kper="549" kstp="1" mode="normal"


 OUTPUT CONTROL FOR STRESS PERIOD 549 IS REPEATED USING SETTINGS FROM A PREVIOUS STRESS PERIOD.


 STRESS PERIOD 549 IS TRANSIENT


 REUSING WELS FROM LAST STRESS PERIOD

 REUSING DRNS FROM LAST STRESS PERIOD

 REUSING RCHS FROM LAST STRESS PERIOD


  VOLUME BUDGET FOR ENTIRE MODEL AT END OF TIME STEP    1, STRESS PERIOD 549
  ---------------------------------------------------------------------------------------------------

     CUMULATIVE VOLUME      L**3       RATES FOR THIS TIME STEP      L**3/T          PACKAGE NAME    
     ------------------                 ------------------------                     ----------------

           IN:                                      IN:
           ---                                      ---
              STO-SS =           0.0000                STO-SS =           0.0000     STORAGE         
              STO-SY = 10628156947.4915                STO-SY =    16032973.8767     STORAGE         
                 WEL =           0.0000                   WEL =           0.0000     WEL_0           
                 DRN =           0.0000                   DRN =           0.0000     DRN_0           
                 RCH = 26067276762.0352                   RCH =    12443235.0908     RCH_0           

            TOTAL IN = 36695433709.5267              TOTAL IN =    28476208.9676

          OUT:                                     OUT:
          ----                                     ----
              STO-SS =           0.0000                STO-SS =           0.0000     STORAGE         
              STO-SY =  8413353664.3863                STO-SY =     3888613.5232     STORAGE         
                 WEL =  5506933451.1177                   WEL =     2628092.8639     WEL_0           
                 DRN = 22775138056.9825                   DRN =    21959503.5075     DRN_0           
                 RCH =           0.0000                   RCH =           0.0000     RCH_0           

           TOTAL OUT = 36695425172.4865             TOTAL OUT =    28476209.8946

            IN - OUT =        8537.0402              IN - OUT =          -0.9271

 PERCENT DISCREPANCY =           0.00     PERCENT DISCREPANCY =          -0.00




         TIME SUMMARY AT END OF TIME STEP    1 IN STRESS PERIOD  549
                          TIME STEP LENGTH =    1.00000    
                        STRESS PERIOD TIME =    1.00000    
                     TOTAL SIMULATION TIME =    549.000    

end timestep


start timestep kper="550" kstp="1" mode="normal"


 OUTPUT CONTROL FOR STRESS PERIOD 550 IS REPEATED USING SETTINGS FROM A PREVIOUS STRESS PERIOD.


 STRESS PERIOD 550 IS TRANSIENT


 REUSING WELS FROM LAST STRESS PERIOD

 REUSING DRNS FROM LAST STRESS PERIOD

 REUSING RCHS FROM LAST STRESS PERIOD


  VOLUME BUDGET FOR ENTIRE MODEL AT END OF TIME STEP    1, STRESS PERIOD 550
  ---------------------------------------------------------------------------------------------------

     CUMULATIVE VOLUME      L**3       RATES FOR THIS TIME STEP      L**3/T          PACKAGE NAME    
     ------------------                 ------------------------                     ----------------

           IN:                                      IN:
           ---                                      ---
              STO-SS =           0.0000                STO-SS =           0.0000     STORAGE         
              STO-SY = 10652891902.3466                STO-SY =    24734954.8551     STORAGE         
                 WEL =           0.0000                   WEL =           0.0000     WEL_0           
                 DRN =           0.0000                   DRN =           0.0000     DRN_0           
                 RCH = 26094830524.7381                   RCH =    27553762.7029     RCH_0           

            TOTAL IN = 36747722427.0847              TOTAL IN =    52288717.5580

          OUT:                                     OUT:
          ----                                     ----
              STO-SS =           0.0000                STO-SS =           0.0000     STORAGE         
              STO-SY =  8423246421.6216                STO-SY =     9892757.2353     STORAGE         
                 WEL =  5523495540.5968                   WEL =    16562089.4790     WEL_0           
                 DRN = 22800971940.7417                   DRN =    25833883.7592     DRN_0           
                 RCH =           0.0000                   RCH =           0.0000     RCH_0           

           TOTAL OUT = 36747713902.9600             TOTAL OUT =    52288730.4735

            IN - OUT =        8524.1247              IN - OUT =         -12.9155

 PERCENT DISCREPANCY =           0.00     PERCENT DISCREPANCY =          -0.00




         TIME SUMMARY AT END OF TIME STEP    1 IN STRESS PERIOD  550
                          TIME STEP LENGTH =    1.00000    
                        STRESS PERIOD TIME =    1.00000    
                     TOTAL SIMULATION TIME =    550.000    

end timestep


start timestep kper="551" kstp="1" mode="normal"


 OUTPUT CONTROL FOR STRESS PERIOD 551 IS REPEATED USING SETTINGS FROM A PREVIOUS STRESS PERIOD.


 STRESS PERIOD 551 IS TRANSIENT


 REUSING WELS FROM LAST STRESS PERIOD

 REUSING DRNS FROM LAST STRESS PERIOD

 REUSING RCHS FROM LAST STRESS PERIOD


  VOLUME BUDGET FOR ENTIRE MODEL AT END OF TIME STEP    1, STRESS PERIOD 551
  ---------------------------------------------------------------------------------------------------

     CUMULATIVE VOLUME      L**3       RATES FOR THIS TIME STEP      L**3/T          PACKAGE NAME    
     ------------------                 ------------------------                     ----------------

           IN:                                      IN:
           ---                                      ---
              STO-SS =           0.0000                STO-SS =           0.0000     STORAGE         
              STO-SY = 10680105991.0390                STO-SY =    27214088.6924     STORAGE         
                 WEL =           0.0000                   WEL =           0.0000     WEL_0           
                 DRN =           0.0000                   DRN =           0.0000     DRN_0           
                 RCH = 26117754765.5629                   RCH =    22924240.8248     RCH_0           

            TOTAL IN = 36797860756.6019              TOTAL IN =    50138329.5172

          OUT:                                     OUT:
          ----                                     ----
              STO-SS =           0.0000                STO-SS =           0.0000     STORAGE         
              STO-SY =  8430128025.9792                STO-SY =     6881604.3577     STORAGE         
                 WEL =  5543536777.3947                   WEL =    20041236.7980     WEL_0           
                 DRN = 22824187431.3117                   DRN =    23215490.5701     DRN_0           
                 RCH =           0.0000                   RCH =           0.0000     RCH_0           

           TOTAL OUT = 36797852234.6857             TOTAL OUT =    50138331.7257

            IN - OUT =        8521.9162              IN - OUT =          -2.2085

 PERCENT DISCREPANCY =           0.00     PERCENT DISCREPANCY =          -0.00




         TIME SUMMARY AT END OF TIME STEP    1 IN STRESS PERIOD  551
                          TIME STEP LENGTH =    1.00000    
                        STRESS PERIOD TIME =    1.00000    
                     TOTAL SIMULATION TIME =    551.000    

end timestep


start timestep kper="552" kstp="1" mode="normal"


 OUTPUT CONTROL FOR STRESS PERIOD 552 IS REPEATED USING SETTINGS FROM A PREVIOUS STRESS PERIOD.


 STRESS PERIOD 552 IS TRANSIENT


 REUSING WELS FROM LAST STRESS PERIOD

 REUSING DRNS FROM LAST STRESS PERIOD

 REUSING RCHS FROM LAST STRESS PERIOD


  VOLUME BUDGET FOR ENTIRE MODEL AT END OF TIME STEP    1, STRESS PERIOD 552
  ---------------------------------------------------------------------------------------------------

     CUMULATIVE VOLUME      L**3       RATES FOR THIS TIME STEP      L**3/T          PACKAGE NAME    
     ------------------                 ------------------------                     ----------------

           IN:                                      IN:
           ---                                      ---
              STO-SS =           0.0000                STO-SS =           0.0000     STORAGE         
              STO-SY = 10707177984.6490                STO-SY =    27071993.6100     STORAGE         
                 WEL =           0.0000                   WEL =           0.0000     WEL_0           
                 DRN =           0.0000                   DRN =           0.0000     DRN_0           
                 RCH = 26140183716.1611                   RCH =    22428950.5982     RCH_0           

            TOTAL IN = 36847361700.8101              TOTAL IN =    49500944.2082

          OUT:                                     OUT:
          ----                                     ----
              STO-SS =           0.0000                STO-SS =           0.0000     STORAGE         
              STO-SY =  8435095660.1539                STO-SY =     4967634.1747     STORAGE         
                 WEL =  5563718035.6629                   WEL =    20181258.2681     WEL_0           
                 DRN = 22848539479.7108                   DRN =    24352048.3991     DRN_0           
                 RCH =           0.0000                   RCH =           0.0000     RCH_0           

           TOTAL OUT = 36847353175.5275             TOTAL OUT =    49500940.8418

            IN - OUT =        8525.2826              IN - OUT =           3.3664

 PERCENT DISCREPANCY =           0.00     PERCENT DISCREPANCY =           0.00




         TIME SUMMARY AT END OF TIME STEP    1 IN STRESS PERIOD  552
                          TIME STEP LENGTH =    1.00000    
                        STRESS PERIOD TIME =    1.00000    
                     TOTAL SIMULATION TIME =    552.000    

end timestep


start timestep kper="553" kstp="1" mode="normal"


 OUTPUT CONTROL FOR STRESS PERIOD 553 IS REPEATED USING SETTINGS FROM A PREVIOUS STRESS PERIOD.


 STRESS PERIOD 553 IS TRANSIENT


 REUSING WELS FROM LAST STRESS PERIOD

 REUSING DRNS FROM LAST STRESS PERIOD

 REUSING RCHS FROM LAST STRESS PERIOD


  VOLUME BUDGET FOR ENTIRE MODEL AT END OF TIME STEP    1, STRESS PERIOD 553
  ---------------------------------------------------------------------------------------------------

     CUMULATIVE VOLUME      L**3       RATES FOR THIS TIME STEP      L**3/T          PACKAGE NAME    
     ------------------                 ------------------------                     ----------------

           IN:                                      IN:
           ---                                      ---
              STO-SS =           0.0000                STO-SS =           0.0000     STORAGE         
              STO-SY = 10729921904.8952                STO-SY =    22743920.2462     STORAGE         
                 WEL =           0.0000                   WEL =           0.0000     WEL_0           
                 DRN =           0.0000                   DRN =           0.0000     DRN_0           
                 RCH = 26157016159.2402                   RCH =    16832443.0791     RCH_0           

            TOTAL IN = 36886938064.1354              TOTAL IN =    39576363.3253

          OUT:                                     OUT:
          ----                                     ----
              STO-SS =           0.0000                STO-SS =           0.0000     STORAGE         
              STO-SY =  8439228906.7260                STO-SY =     4133246.5721     STORAGE         
                 WEL =  5577601659.3911                   WEL =    13883623.7283     WEL_0           
                 DRN = 22870098964.2765                   DRN =    21559484.5657     DRN_0           
                 RCH =           0.0000                   RCH =           0.0000     RCH_0           

           TOTAL OUT = 36886929530.3937             TOTAL OUT =    39576354.8662

            IN - OUT =        8533.7417              IN - OUT =           8.4591

 PERCENT DISCREPANCY =           0.00     PERCENT DISCREPANCY =           0.00




         TIME SUMMARY AT END OF TIME STEP    1 IN STRESS PERIOD  553
                          TIME STEP LENGTH =    1.00000    
                        STRESS PERIOD TIME =    1.00000    
                     TOTAL SIMULATION TIME =    553.000    

end timestep


start timestep kper="554" kstp="1" mode="normal"


 OUTPUT CONTROL FOR STRESS PERIOD 554 IS REPEATED USING SETTINGS FROM A PREVIOUS STRESS PERIOD.


 STRESS PERIOD 554 IS TRANSIENT


 REUSING WELS FROM LAST STRESS PERIOD

 REUSING DRNS FROM LAST STRESS PERIOD

 REUSING RCHS FROM LAST STRESS PERIOD


  VOLUME BUDGET FOR ENTIRE MODEL AT END OF TIME STEP    1, STRESS PERIOD 554
  ---------------------------------------------------------------------------------------------------

     CUMULATIVE VOLUME      L**3       RATES FOR THIS TIME STEP      L**3/T          PACKAGE NAME    
     ------------------                 ------------------------                     ----------------

           IN:                                      IN:
           ---                                      ---
              STO-SS =           0.0000                STO-SS =           0.0000     STORAGE         
              STO-SY = 10759212839.0040                STO-SY =    29290934.1088     STORAGE         
                 WEL =           0.0000                   WEL =           0.0000     WEL_0           
                 DRN =           0.0000                   DRN =           0.0000     DRN_0           
                 RCH = 26179097492.3982                   RCH =    22081333.1580     RCH_0           

            TOTAL IN = 36938310331.4021              TOTAL IN =    51372267.2667

          OUT:                                     OUT:
          ----                                     ----
              STO-SS =           0.0000                STO-SS =           0.0000     STORAGE         
              STO-SY =  8443459606.4852                STO-SY =     4230699.7592     STORAGE         
                 WEL =  5601141118.0735                   WEL =    23539458.6824     WEL_0           
                 DRN = 22893701077.7732                   DRN =    23602113.4967     DRN_0           
                 RCH =           0.0000                   RCH =           0.0000     RCH_0           

           TOTAL OUT = 36938301802.3319             TOTAL OUT =    51372271.9382

            IN - OUT =        8529.0702              IN - OUT =          -4.6715

 PERCENT DISCREPANCY =           0.00     PERCENT DISCREPANCY =          -0.00




         TIME SUMMARY AT END OF TIME STEP    1 IN STRESS PERIOD  554
                          TIME STEP LENGTH =    1.00000    
                        STRESS PERIOD TIME =    1.00000    
                     TOTAL SIMULATION TIME =    554.000    

end timestep


start timestep kper="555" kstp="1" mode="normal"


 OUTPUT CONTROL FOR STRESS PERIOD 555 IS REPEATED USING SETTINGS FROM A PREVIOUS STRESS PERIOD.


 STRESS PERIOD 555 IS TRANSIENT


 REUSING WELS FROM LAST STRESS PERIOD

 REUSING DRNS FROM LAST STRESS PERIOD

 REUSING RCHS FROM LAST STRESS PERIOD


  VOLUME BUDGET FOR ENTIRE MODEL AT END OF TIME STEP    1, STRESS PERIOD 555
  ---------------------------------------------------------------------------------------------------

     CUMULATIVE VOLUME      L**3       RATES FOR THIS TIME STEP      L**3/T          PACKAGE NAME    
     ------------------                 ------------------------                     ----------------

           IN:                                      IN:
           ---                                      ---
              STO-SS =           0.0000                STO-SS =           0.0000     STORAGE         
              STO-SY = 10775608226.6729                STO-SY =    16395387.6690     STORAGE         
                 WEL =           0.0000                   WEL =           0.0000     WEL_0           
                 DRN =           0.0000                   DRN =           0.0000     DRN_0           
                 RCH = 26189079535.2444                   RCH =     9982042.8463     RCH_0           

            TOTAL IN = 36964687761.9174              TOTAL IN =    26377430.5152

          OUT:                                     OUT:
          ----                                     ----
              STO-SS =           0.0000                STO-SS =           0.0000     STORAGE         
              STO-SY =  8446635587.3962                STO-SY =     3175980.9110     STORAGE         
                 WEL =  5603383946.7309                   WEL =     2242828.6574     WEL_0           
                 DRN = 22914659691.2564                   DRN =    20958613.4832     DRN_0           
                 RCH =           0.0000                   RCH =           0.0000     RCH_0           

           TOTAL OUT = 36964679225.3835             TOTAL OUT =    26377423.0516

            IN - OUT =        8536.5339              IN - OUT =           7.4636

 PERCENT DISCREPANCY =           0.00     PERCENT DISCREPANCY =           0.00




         TIME SUMMARY AT END OF TIME STEP    1 IN STRESS PERIOD  555
                          TIME STEP LENGTH =    1.00000    
                        STRESS PERIOD TIME =    1.00000    
                     TOTAL SIMULATION TIME =    555.000    

end timestep


start timestep kper="556" kstp="1" mode="normal"


 OUTPUT CONTROL FOR STRESS PERIOD 556 IS REPEATED USING SETTINGS FROM A PREVIOUS STRESS PERIOD.


 STRESS PERIOD 556 IS TRANSIENT


 REUSING WELS FROM LAST STRESS PERIOD

 REUSING DRNS FROM LAST STRESS PERIOD

 REUSING RCHS FROM LAST STRESS PERIOD


  VOLUME BUDGET FOR ENTIRE MODEL AT END OF TIME STEP    1, STRESS PERIOD 556
  ---------------------------------------------------------------------------------------------------

     CUMULATIVE VOLUME      L**3       RATES FOR THIS TIME STEP      L**3/T          PACKAGE NAME    
     ------------------                 ------------------------                     ----------------

           IN:                                      IN:
           ---                                      ---
              STO-SS =           0.0000                STO-SS =           0.0000     STORAGE         
              STO-SY = 10791704401.6045                STO-SY =    16096174.9316     STORAGE         
                 WEL =           0.0000                   WEL =           0.0000     WEL_0           
                 DRN =           0.0000                   DRN =           0.0000     DRN_0           
                 RCH = 26200148438.6117                   RCH =    11068903.3673     RCH_0           

            TOTAL IN = 36991852840.2162              TOTAL IN =    27165078.2988

          OUT:                                     OUT:
          ----                                     ----
              STO-SS =           0.0000                STO-SS =           0.0000     STORAGE         
              STO-SY =  8449215104.7278                STO-SY =     2579517.3317     STORAGE         
                 WEL =  5605878208.8691                   WEL =     2494262.1382     WEL_0           
                 DRN = 22936750993.5609                   DRN =    22091302.3045     DRN_0           
                 RCH =           0.0000                   RCH =           0.0000     RCH_0           

           TOTAL OUT = 36991844307.1578             TOTAL OUT =    27165081.7743

            IN - OUT =        8533.0584              IN - OUT =          -3.4755

 PERCENT DISCREPANCY =           0.00     PERCENT DISCREPANCY =          -0.00




         TIME SUMMARY AT END OF TIME STEP    1 IN STRESS PERIOD  556
                          TIME STEP LENGTH =    1.00000    
                        STRESS PERIOD TIME =    1.00000    
                     TOTAL SIMULATION TIME =    556.000    

end timestep


start timestep kper="557" kstp="1" mode="normal"


 OUTPUT CONTROL FOR STRESS PERIOD 557 IS REPEATED USING SETTINGS FROM A PREVIOUS STRESS PERIOD.


 STRESS PERIOD 557 IS TRANSIENT


 REUSING WELS FROM LAST STRESS PERIOD

 REUSING DRNS FROM LAST STRESS PERIOD

 REUSING RCHS FROM LAST STRESS PERIOD


  VOLUME BUDGET FOR ENTIRE MODEL AT END OF TIME STEP    1, STRESS PERIOD 557
  ---------------------------------------------------------------------------------------------------

     CUMULATIVE VOLUME      L**3       RATES FOR THIS TIME STEP      L**3/T          PACKAGE NAME    
     ------------------                 ------------------------                     ----------------

           IN:                                      IN:
           ---                                      ---
              STO-SS =           0.0000                STO-SS =           0.0000     STORAGE         
              STO-SY = 10808359751.8319                STO-SY =    16655350.2274     STORAGE         
                 WEL =           0.0000                   WEL =           0.0000     WEL_0           
                 DRN =           0.0000                   DRN =           0.0000     DRN_0           
                 RCH = 26206813580.0857                   RCH =     6665141.4740     RCH_0           

            TOTAL IN = 37015173331.9176              TOTAL IN =    23320491.7014

          OUT:                                     OUT:
          ----                                     ----
              STO-SS =           0.0000                STO-SS =           0.0000     STORAGE         
              STO-SY =  8450736014.9399                STO-SY =     1520910.2120     STORAGE         
                 WEL =  5607806807.5486                   WEL =     1928598.6795     WEL_0           
                 DRN = 22956621977.7561                   DRN =    19870984.1952     DRN_0           
                 RCH =           0.0000                   RCH =           0.0000     RCH_0           

           TOTAL OUT = 37015164800.2446             TOTAL OUT =    23320493.0867

            IN - OUT =        8531.6730              IN - OUT =          -1.3854

 PERCENT DISCREPANCY =           0.00     PERCENT DISCREPANCY =          -0.00




         TIME SUMMARY AT END OF TIME STEP    1 IN STRESS PERIOD  557
                          TIME STEP LENGTH =    1.00000    
                        STRESS PERIOD TIME =    1.00000    
                     TOTAL SIMULATION TIME =    557.000    

end timestep


start timestep kper="558" kstp="1" mode="normal"


 OUTPUT CONTROL FOR STRESS PERIOD 558 IS REPEATED USING SETTINGS FROM A PREVIOUS STRESS PERIOD.


 STRESS PERIOD 558 IS TRANSIENT


 REUSING WELS FROM LAST STRESS PERIOD

 REUSING DRNS FROM LAST STRESS PERIOD

 REUSING RCHS FROM LAST STRESS PERIOD


  VOLUME BUDGET FOR ENTIRE MODEL AT END OF TIME STEP    1, STRESS PERIOD 558
  ---------------------------------------------------------------------------------------------------

     CUMULATIVE VOLUME      L**3       RATES FOR THIS TIME STEP      L**3/T          PACKAGE NAME    
     ------------------                 ------------------------                     ----------------

           IN:                                      IN:
           ---                                      ---
              STO-SS =           0.0000                STO-SS =           0.0000     STORAGE         
              STO-SY = 10824117442.6582                STO-SY =    15757690.8264     STORAGE         
                 WEL =           0.0000                   WEL =           0.0000     WEL_0           
                 DRN =           0.0000                   DRN =           0.0000     DRN_0           
                 RCH = 26218205581.3796                   RCH =    11392001.2939     RCH_0           

            TOTAL IN = 37042323024.0379              TOTAL IN =    27149692.1203

          OUT:                                     OUT:
          ----                                     ----
              STO-SS =           0.0000                STO-SS =           0.0000     STORAGE         
              STO-SY =  8453440120.1799                STO-SY =     2704105.2400     STORAGE         
                 WEL =  5610245094.7649                   WEL =     2438287.2164     WEL_0           
                 DRN = 22978629272.7728                   DRN =    22007295.0167     DRN_0           
                 RCH =           0.0000                   RCH =           0.0000     RCH_0           

           TOTAL OUT = 37042314487.7176             TOTAL OUT =    27149687.4731

            IN - OUT =        8536.3202              IN - OUT =           4.6472

 PERCENT DISCREPANCY =           0.00     PERCENT DISCREPANCY =           0.00




         TIME SUMMARY AT END OF TIME STEP    1 IN STRESS PERIOD  558
                          TIME STEP LENGTH =    1.00000    
                        STRESS PERIOD TIME =    1.00000    
                     TOTAL SIMULATION TIME =    558.000    

end timestep


start timestep kper="559" kstp="1" mode="normal"


 OUTPUT CONTROL FOR STRESS PERIOD 559 IS REPEATED USING SETTINGS FROM A PREVIOUS STRESS PERIOD.


 STRESS PERIOD 559 IS TRANSIENT


 REUSING WELS FROM LAST STRESS PERIOD

 REUSING DRNS FROM LAST STRESS PERIOD

 REUSING RCHS FROM LAST STRESS PERIOD


  VOLUME BUDGET FOR ENTIRE MODEL AT END OF TIME STEP    1, STRESS PERIOD 559
  ---------------------------------------------------------------------------------------------------

     CUMULATIVE VOLUME      L**3       RATES FOR THIS TIME STEP      L**3/T          PACKAGE NAME    
     ------------------                 ------------------------                     ----------------

           IN:                                      IN:
           ---                                      ---
              STO-SS =           0.0000                STO-SS =           0.0000     STORAGE         
              STO-SY = 10840279641.5360                STO-SY =    16162198.8778     STORAGE         
                 WEL =           0.0000                   WEL =           0.0000     WEL_0           
                 DRN =           0.0000                   DRN =           0.0000     DRN_0           
                 RCH = 26227336245.6018                   RCH =     9130664.2221     RCH_0           

            TOTAL IN = 37067615887.1378              TOTAL IN =    25292863.0999

          OUT:                                     OUT:
          ----                                     ----
              STO-SS =           0.0000                STO-SS =           0.0000     STORAGE         
              STO-SY =  8455770529.8330                STO-SY =     2330409.6532     STORAGE         
                 WEL =  5613587558.8770                   WEL =     3342464.1120     WEL_0           
                 DRN = 22998249262.1687                   DRN =    19619989.3959     DRN_0           
                 RCH =           0.0000                   RCH =           0.0000     RCH_0           

           TOTAL OUT = 37067607350.8788             TOTAL OUT =    25292863.1611

            IN - OUT =        8536.2590              IN - OUT =      -6.1205E-02

 PERCENT DISCREPANCY =           0.00     PERCENT DISCREPANCY =          -0.00




         TIME SUMMARY AT END OF TIME STEP    1 IN STRESS PERIOD  559
                          TIME STEP LENGTH =    1.00000    
                        STRESS PERIOD TIME =    1.00000    
                     TOTAL SIMULATION TIME =    559.000    

end timestep


start timestep kper="560" kstp="1" mode="normal"


 OUTPUT CONTROL FOR STRESS PERIOD 560 IS REPEATED USING SETTINGS FROM A PREVIOUS STRESS PERIOD.


 STRESS PERIOD 560 IS TRANSIENT


 REUSING WELS FROM LAST STRESS PERIOD

 REUSING DRNS FROM LAST STRESS PERIOD

 REUSING RCHS FROM LAST STRESS PERIOD


  VOLUME BUDGET FOR ENTIRE MODEL AT END OF TIME STEP    1, STRESS PERIOD 560
  ---------------------------------------------------------------------------------------------------

     CUMULATIVE VOLUME      L**3       RATES FOR THIS TIME STEP      L**3/T          PACKAGE NAME    
     ------------------                 ------------------------                     ----------------

           IN:                                      IN:
           ---                                      ---
              STO-SS =           0.0000                STO-SS =           0.0000     STORAGE         
              STO-SY = 10856122958.1736                STO-SY =    15843316.6375     STORAGE         
                 WEL =           0.0000                   WEL =           0.0000     WEL_0           
                 DRN =           0.0000                   DRN =           0.0000     DRN_0           
                 RCH = 26238451539.9231                   RCH =    11115294.3213     RCH_0           

            TOTAL IN = 37094574498.0966              TOTAL IN =    26958610.9589

          OUT:                                     OUT:
          ----                                     ----
              STO-SS =           0.0000                STO-SS =           0.0000     STORAGE         
              STO-SY =  8458292708.5458                STO-SY =     2522178.7128     STORAGE         
                 WEL =  5616415000.5254                   WEL =     2827441.6484     WEL_0           
                 DRN = 23019858262.6828                   DRN =    21609000.5140     DRN_0           
                 RCH =           0.0000                   RCH =           0.0000     RCH_0           

           TOTAL OUT = 37094565971.7540             TOTAL OUT =    26958620.8752

            IN - OUT =        8526.3427              IN - OUT =          -9.9163

 PERCENT DISCREPANCY =           0.00     PERCENT DISCREPANCY =          -0.00




         TIME SUMMARY AT END OF TIME STEP    1 IN STRESS PERIOD  560
                          TIME STEP LENGTH =    1.00000    
                        STRESS PERIOD TIME =    1.00000    
                     TOTAL SIMULATION TIME =    560.000    

end timestep


start timestep kper="561" kstp="1" mode="normal"


 OUTPUT CONTROL FOR STRESS PERIOD 561 IS REPEATED USING SETTINGS FROM A PREVIOUS STRESS PERIOD.


 STRESS PERIOD 561 IS TRANSIENT


 REUSING WELS FROM LAST STRESS PERIOD

 REUSING DRNS FROM LAST STRESS PERIOD

 REUSING RCHS FROM LAST STRESS PERIOD


  VOLUME BUDGET FOR ENTIRE MODEL AT END OF TIME STEP    1, STRESS PERIOD 561
  ---------------------------------------------------------------------------------------------------

     CUMULATIVE VOLUME      L**3       RATES FOR THIS TIME STEP      L**3/T          PACKAGE NAME    
     ------------------                 ------------------------                     ----------------

           IN:                                      IN:
           ---                                      ---
              STO-SS =           0.0000                STO-SS =           0.0000     STORAGE         
              STO-SY = 10872325440.7733                STO-SY =    16202482.5997     STORAGE         
                 WEL =           0.0000                   WEL =           0.0000     WEL_0           
                 DRN =           0.0000                   DRN =           0.0000     DRN_0           
                 RCH = 26244890298.5176                   RCH =     6438758.5945     RCH_0           

            TOTAL IN = 37117215739.2909              TOTAL IN =    22641241.1943

          OUT:                                     OUT:
          ----                                     ----
              STO-SS =           0.0000                STO-SS =           0.0000     STORAGE         
              STO-SY =  8459844160.9458                STO-SY =     1551452.4000     STORAGE         
                 WEL =  5618148783.9189                   WEL =     1733783.3935     WEL_0           
                 DRN = 23039214267.9903                   DRN =    19356005.3075     DRN_0           
                 RCH =           0.0000                   RCH =           0.0000     RCH_0           

           TOTAL OUT = 37117207212.8550             TOTAL OUT =    22641241.1011

            IN - OUT =        8526.4359              IN - OUT =       9.3178E-02

 PERCENT DISCREPANCY =           0.00     PERCENT DISCREPANCY =           0.00




         TIME SUMMARY AT END OF TIME STEP    1 IN STRESS PERIOD  561
                          TIME STEP LENGTH =    1.00000    
                        STRESS PERIOD TIME =    1.00000    
                     TOTAL SIMULATION TIME =    561.000    

end timestep


start timestep kper="562" kstp="1" mode="normal"


 OUTPUT CONTROL FOR STRESS PERIOD 562 IS REPEATED USING SETTINGS FROM A PREVIOUS STRESS PERIOD.


 STRESS PERIOD 562 IS TRANSIENT


 REUSING WELS FROM LAST STRESS PERIOD

 REUSING DRNS FROM LAST STRESS PERIOD

 REUSING RCHS FROM LAST STRESS PERIOD


  VOLUME BUDGET FOR ENTIRE MODEL AT END OF TIME STEP    1, STRESS PERIOD 562
  ---------------------------------------------------------------------------------------------------

     CUMULATIVE VOLUME      L**3       RATES FOR THIS TIME STEP      L**3/T          PACKAGE NAME    
     ------------------                 ------------------------                     ----------------

           IN:                                      IN:
           ---                                      ---
              STO-SS =           0.0000                STO-SS =           0.0000     STORAGE         
              STO-SY = 10888066737.6143                STO-SY =    15741296.8410     STORAGE         
                 WEL =           0.0000                   WEL =           0.0000     WEL_0           
                 DRN =           0.0000                   DRN =           0.0000     DRN_0           
                 RCH = 26256177136.0357                   RCH =    11286837.5181     RCH_0           

            TOTAL IN = 37144243873.6500              TOTAL IN =    27028134.3591

          OUT:                                     OUT:
          ----                                     ----
              STO-SS =           0.0000                STO-SS =           0.0000     STORAGE         
              STO-SY =  8462156665.4035                STO-SY =     2312504.4576     STORAGE         
                 WEL =  5621614177.5134                   WEL =     3465393.5945     WEL_0           
                 DRN = 23060464504.3887                   DRN =    21250236.3984     DRN_0           
                 RCH =           0.0000                   RCH =           0.0000     RCH_0           

           TOTAL OUT = 37144235347.3056             TOTAL OUT =    27028134.4505

            IN - OUT =        8526.3444              IN - OUT =      -9.1410E-02

 PERCENT DISCREPANCY =           0.00     PERCENT DISCREPANCY =          -0.00




         TIME SUMMARY AT END OF TIME STEP    1 IN STRESS PERIOD  562
                          TIME STEP LENGTH =    1.00000    
                        STRESS PERIOD TIME =    1.00000    
                     TOTAL SIMULATION TIME =    562.000    

end timestep


start timestep kper="563" kstp="1" mode="normal"


 OUTPUT CONTROL FOR STRESS PERIOD 563 IS REPEATED USING SETTINGS FROM A PREVIOUS STRESS PERIOD.


 STRESS PERIOD 563 IS TRANSIENT


 REUSING WELS FROM LAST STRESS PERIOD

 REUSING DRNS FROM LAST STRESS PERIOD

 REUSING RCHS FROM LAST STRESS PERIOD


  VOLUME BUDGET FOR ENTIRE MODEL AT END OF TIME STEP    1, STRESS PERIOD 563
  ---------------------------------------------------------------------------------------------------

     CUMULATIVE VOLUME      L**3       RATES FOR THIS TIME STEP      L**3/T          PACKAGE NAME    
     ------------------                 ------------------------                     ----------------

           IN:                                      IN:
           ---                                      ---
              STO-SS =           0.0000                STO-SS =           0.0000     STORAGE         
              STO-SY = 10904658175.7603                STO-SY =    16591438.1461     STORAGE         
                 WEL =           0.0000                   WEL =           0.0000     WEL_0           
                 DRN =           0.0000                   DRN =           0.0000     DRN_0           
                 RCH = 26262626695.4988                   RCH =     6449559.4631     RCH_0           

            TOTAL IN = 37167284871.2592              TOTAL IN =    23040997.6092

          OUT:                                     OUT:
          ----                                     ----
              STO-SS =           0.0000                STO-SS =           0.0000     STORAGE         
              STO-SY =  8463555546.9754                STO-SY =     1398881.5719     STORAGE         
                 WEL =  5624162857.5464                   WEL =     2548680.0330     WEL_0           
                 DRN = 23079557942.7188                   DRN =    19093438.3301     DRN_0           
                 RCH =           0.0000                   RCH =           0.0000     RCH_0           

           TOTAL OUT = 37167276347.2406             TOTAL OUT =    23040999.9351

            IN - OUT =        8524.0186              IN - OUT =          -2.3259

 PERCENT DISCREPANCY =           0.00     PERCENT DISCREPANCY =          -0.00




         TIME SUMMARY AT END OF TIME STEP    1 IN STRESS PERIOD  563
                          TIME STEP LENGTH =    1.00000    
                        STRESS PERIOD TIME =    1.00000    
                     TOTAL SIMULATION TIME =    563.000    

end timestep


start timestep kper="564" kstp="1" mode="normal"


 OUTPUT CONTROL FOR STRESS PERIOD 564 IS REPEATED USING SETTINGS FROM A PREVIOUS STRESS PERIOD.


 STRESS PERIOD 564 IS TRANSIENT


 REUSING WELS FROM LAST STRESS PERIOD

 REUSING DRNS FROM LAST STRESS PERIOD

 REUSING RCHS FROM LAST STRESS PERIOD


  VOLUME BUDGET FOR ENTIRE MODEL AT END OF TIME STEP    1, STRESS PERIOD 564
  ---------------------------------------------------------------------------------------------------

     CUMULATIVE VOLUME      L**3       RATES FOR THIS TIME STEP      L**3/T          PACKAGE NAME    
     ------------------                 ------------------------                     ----------------

           IN:                                      IN:
           ---                                      ---
              STO-SS =           0.0000                STO-SS =           0.0000     STORAGE         
              STO-SY = 10930567464.5794                STO-SY =    25909288.8190     STORAGE         
                 WEL =           0.0000                   WEL =           0.0000     WEL_0           
                 DRN =           0.0000                   DRN =           0.0000     DRN_0           
                 RCH = 26285086173.8170                   RCH =    22459478.3182     RCH_0           

            TOTAL IN = 37215653638.3964              TOTAL IN =    48368767.1372

          OUT:                                     OUT:
          ----                                     ----
              STO-SS =           0.0000                STO-SS =           0.0000     STORAGE         
              STO-SY =  8470007223.9140                STO-SY =     6451676.9386     STORAGE         
                 WEL =  5643326699.2801                   WEL =    19163841.7337     WEL_0           
                 DRN = 23102311194.0063                   DRN =    22753251.2875     DRN_0           
                 RCH =           0.0000                   RCH =           0.0000     RCH_0           

           TOTAL OUT = 37215645117.2004             TOTAL OUT =    48368769.9598

            IN - OUT =        8521.1960              IN - OUT =          -2.8226

 PERCENT DISCREPANCY =           0.00     PERCENT DISCREPANCY =          -0.00




         TIME SUMMARY AT END OF TIME STEP    1 IN STRESS PERIOD  564
                          TIME STEP LENGTH =    1.00000    
                        STRESS PERIOD TIME =    1.00000    
                     TOTAL SIMULATION TIME =    564.000    

end timestep


start timestep kper="565" kstp="1" mode="normal"


 OUTPUT CONTROL FOR STRESS PERIOD 565 IS REPEATED USING SETTINGS FROM A PREVIOUS STRESS PERIOD.


 STRESS PERIOD 565 IS TRANSIENT


 REUSING WELS FROM LAST STRESS PERIOD

 REUSING DRNS FROM LAST STRESS PERIOD

 REUSING RCHS FROM LAST STRESS PERIOD


  VOLUME BUDGET FOR ENTIRE MODEL AT END OF TIME STEP    1, STRESS PERIOD 565
  ---------------------------------------------------------------------------------------------------

     CUMULATIVE VOLUME      L**3       RATES FOR THIS TIME STEP      L**3/T          PACKAGE NAME    
     ------------------                 ------------------------                     ----------------

           IN:                                      IN:
           ---                                      ---
              STO-SS =           0.0000                STO-SS =           0.0000     STORAGE         
              STO-SY = 10959896788.5970                STO-SY =    29329324.0176     STORAGE         
                 WEL =           0.0000                   WEL =           0.0000     WEL_0           
                 DRN =           0.0000                   DRN =           0.0000     DRN_0           
                 RCH = 26305519108.0461                   RCH =    20432934.2291     RCH_0           

            TOTAL IN = 37265415896.6431              TOTAL IN =    49762258.2467

          OUT:                                     OUT:
          ----                                     ----
              STO-SS =           0.0000                STO-SS =           0.0000     STORAGE         
              STO-SY =  8476277032.2053                STO-SY =     6269808.2913     STORAGE         
                 WEL =  5667130384.5596                   WEL =    23803685.2794     WEL_0           
                 DRN = 23121999957.3562                   DRN =    19688763.3499     DRN_0           
                 RCH =           0.0000                   RCH =           0.0000     RCH_0           

           TOTAL OUT = 37265407374.1210             TOTAL OUT =    49762256.9206

            IN - OUT =        8522.5221              IN - OUT =           1.3261

 PERCENT DISCREPANCY =           0.00     PERCENT DISCREPANCY =           0.00




         TIME SUMMARY AT END OF TIME STEP    1 IN STRESS PERIOD  565
                          TIME STEP LENGTH =    1.00000    
                        STRESS PERIOD TIME =    1.00000    
                     TOTAL SIMULATION TIME =    565.000    

end timestep


start timestep kper="566" kstp="1" mode="normal"


 OUTPUT CONTROL FOR STRESS PERIOD 566 IS REPEATED USING SETTINGS FROM A PREVIOUS STRESS PERIOD.


 STRESS PERIOD 566 IS TRANSIENT


 REUSING WELS FROM LAST STRESS PERIOD

 REUSING DRNS FROM LAST STRESS PERIOD

 REUSING RCHS FROM LAST STRESS PERIOD


  VOLUME BUDGET FOR ENTIRE MODEL AT END OF TIME STEP    1, STRESS PERIOD 566
  ---------------------------------------------------------------------------------------------------

     CUMULATIVE VOLUME      L**3       RATES FOR THIS TIME STEP      L**3/T          PACKAGE NAME    
     ------------------                 ------------------------                     ----------------

           IN:                                      IN:
           ---                                      ---
              STO-SS =           0.0000                STO-SS =           0.0000     STORAGE         
              STO-SY = 10982295410.1506                STO-SY =    22398621.5536     STORAGE         
                 WEL =           0.0000                   WEL =           0.0000     WEL_0           
                 DRN =           0.0000                   DRN =           0.0000     DRN_0           
                 RCH = 26325199876.2580                   RCH =    19680768.2120     RCH_0           

            TOTAL IN = 37307495286.4086              TOTAL IN =    42079389.7656

          OUT:                                     OUT:
          ----                                     ----
              STO-SS =           0.0000                STO-SS =           0.0000     STORAGE         
              STO-SY =  8480987975.1130                STO-SY =     4710942.9078     STORAGE         
                 WEL =  5682857245.1194                   WEL =    15726860.5599     WEL_0           
                 DRN = 23143641542.4450                   DRN =    21641585.0888     DRN_0           
                 RCH =           0.0000                   RCH =           0.0000     RCH_0           

           TOTAL OUT = 37307486762.6775             TOTAL OUT =    42079388.5565

            IN - OUT =        8523.7312              IN - OUT =           1.2091

 PERCENT DISCREPANCY =           0.00     PERCENT DISCREPANCY =           0.00




         TIME SUMMARY AT END OF TIME STEP    1 IN STRESS PERIOD  566
                          TIME STEP LENGTH =    1.00000    
                        STRESS PERIOD TIME =    1.00000    
                     TOTAL SIMULATION TIME =    566.000    

end timestep


start timestep kper="567" kstp="1" mode="normal"


 OUTPUT CONTROL FOR STRESS PERIOD 567 IS REPEATED USING SETTINGS FROM A PREVIOUS STRESS PERIOD.


 STRESS PERIOD 567 IS TRANSIENT


 REUSING WELS FROM LAST STRESS PERIOD

 REUSING DRNS FROM LAST STRESS PERIOD

 REUSING RCHS FROM LAST STRESS PERIOD


  VOLUME BUDGET FOR ENTIRE MODEL AT END OF TIME STEP    1, STRESS PERIOD 567
  ---------------------------------------------------------------------------------------------------

     CUMULATIVE VOLUME      L**3       RATES FOR THIS TIME STEP      L**3/T          PACKAGE NAME    
     ------------------                 ------------------------                     ----------------

           IN:                                      IN:
           ---                                      ---
              STO-SS =           0.0000                STO-SS =           0.0000     STORAGE         
              STO-SY = 11015089932.9959                STO-SY =    32794522.8453     STORAGE         
                 WEL =           0.0000                   WEL =           0.0000     WEL_0           
                 DRN =           0.0000                   DRN =           0.0000     DRN_0           
                 RCH = 26346637252.7462                   RCH =    21437376.4882     RCH_0           

            TOTAL IN = 37361727185.7421              TOTAL IN =    54231899.3335

          OUT:                                     OUT:
          ----                                     ----
              STO-SS =           0.0000                STO-SS =           0.0000     STORAGE         
              STO-SY =  8486055067.3779                STO-SY =     5067092.2648     STORAGE         
                 WEL =  5712731629.4310                   WEL =    29874384.3116     WEL_0           
                 DRN = 23162931943.8435                   DRN =    19290401.3985     DRN_0           
                 RCH =           0.0000                   RCH =           0.0000     RCH_0           

           TOTAL OUT = 37361718640.6525             TOTAL OUT =    54231877.9750

            IN - OUT =        8545.0897              IN - OUT =          21.3585

 PERCENT DISCREPANCY =           0.00     PERCENT DISCREPANCY =           0.00




         TIME SUMMARY AT END OF TIME STEP    1 IN STRESS PERIOD  567
                          TIME STEP LENGTH =    1.00000    
                        STRESS PERIOD TIME =    1.00000    
                     TOTAL SIMULATION TIME =    567.000    

end timestep


start timestep kper="568" kstp="1" mode="normal"


 OUTPUT CONTROL FOR STRESS PERIOD 568 IS REPEATED USING SETTINGS FROM A PREVIOUS STRESS PERIOD.


 STRESS PERIOD 568 IS TRANSIENT


 REUSING WELS FROM LAST STRESS PERIOD

 REUSING DRNS FROM LAST STRESS PERIOD

 REUSING RCHS FROM LAST STRESS PERIOD


  VOLUME BUDGET FOR ENTIRE MODEL AT END OF TIME STEP    1, STRESS PERIOD 568
  ---------------------------------------------------------------------------------------------------

     CUMULATIVE VOLUME      L**3       RATES FOR THIS TIME STEP      L**3/T          PACKAGE NAME    
     ------------------                 ------------------------                     ----------------

           IN:                                      IN:
           ---                                      ---
              STO-SS =           0.0000                STO-SS =           0.0000     STORAGE         
              STO-SY = 11030655077.2618                STO-SY =    15565144.2659     STORAGE         
                 WEL =           0.0000                   WEL =           0.0000     WEL_0           
                 DRN =           0.0000                   DRN =           0.0000     DRN_0           
                 RCH = 26356216736.5612                   RCH =     9579483.8150     RCH_0           

            TOTAL IN = 37386871813.8231              TOTAL IN =    25144628.0809

          OUT:                                     OUT:
          ----                                     ----
              STO-SS =           0.0000                STO-SS =           0.0000     STORAGE         
              STO-SY =  8488829861.9272                STO-SY =     2774794.5493     STORAGE         
                 WEL =  5715049370.8634                   WEL =     2317741.4324     WEL_0           
                 DRN = 23182984026.9366                   DRN =    20052083.0931     DRN_0           
                 RCH =           0.0000                   RCH =           0.0000     RCH_0           

           TOTAL OUT = 37386863259.7272             TOTAL OUT =    25144619.0748

            IN - OUT =        8554.0958              IN - OUT =           9.0061

 PERCENT DISCREPANCY =           0.00     PERCENT DISCREPANCY =           0.00




         TIME SUMMARY AT END OF TIME STEP    1 IN STRESS PERIOD  568
                          TIME STEP LENGTH =    1.00000    
                        STRESS PERIOD TIME =    1.00000    
                     TOTAL SIMULATION TIME =    568.000    

end timestep


start timestep kper="569" kstp="1" mode="normal"


 OUTPUT CONTROL FOR STRESS PERIOD 569 IS REPEATED USING SETTINGS FROM A PREVIOUS STRESS PERIOD.


 STRESS PERIOD 569 IS TRANSIENT


 REUSING WELS FROM LAST STRESS PERIOD

 REUSING DRNS FROM LAST STRESS PERIOD

 REUSING RCHS FROM LAST STRESS PERIOD


  VOLUME BUDGET FOR ENTIRE MODEL AT END OF TIME STEP    1, STRESS PERIOD 569
  ---------------------------------------------------------------------------------------------------

     CUMULATIVE VOLUME      L**3       RATES FOR THIS TIME STEP      L**3/T          PACKAGE NAME    
     ------------------                 ------------------------                     ----------------

           IN:                                      IN:
           ---                                      ---
              STO-SS =           0.0000                STO-SS =           0.0000     STORAGE         
              STO-SY = 11046761076.8303                STO-SY =    16105999.5685     STORAGE         
                 WEL =           0.0000                   WEL =           0.0000     WEL_0           
                 DRN =           0.0000                   DRN =           0.0000     DRN_0           
                 RCH = 26361719595.3427                   RCH =     5502858.7815     RCH_0           

            TOTAL IN = 37408480672.1730              TOTAL IN =    21608858.3500

          OUT:                                     OUT:
          ----                                     ----
              STO-SS =           0.0000                STO-SS =           0.0000     STORAGE         
              STO-SY =  8490448782.5365                STO-SY =     1618920.6092     STORAGE         
                 WEL =  5717060194.1871                   WEL =     2010823.3237     WEL_0           
                 DRN = 23200963139.3967                   DRN =    17979112.4601     DRN_0           
                 RCH =           0.0000                   RCH =           0.0000     RCH_0           

           TOTAL OUT = 37408472116.1203             TOTAL OUT =    21608856.3930

            IN - OUT =        8556.0528              IN - OUT =           1.9569

 PERCENT DISCREPANCY =           0.00     PERCENT DISCREPANCY =           0.00




         TIME SUMMARY AT END OF TIME STEP    1 IN STRESS PERIOD  569
                          TIME STEP LENGTH =    1.00000    
                        STRESS PERIOD TIME =    1.00000    
                     TOTAL SIMULATION TIME =    569.000    

end timestep


start timestep kper="570" kstp="1" mode="normal"


 OUTPUT CONTROL FOR STRESS PERIOD 570 IS REPEATED USING SETTINGS FROM A PREVIOUS STRESS PERIOD.


 STRESS PERIOD 570 IS TRANSIENT


 REUSING WELS FROM LAST STRESS PERIOD

 REUSING DRNS FROM LAST STRESS PERIOD

 REUSING RCHS FROM LAST STRESS PERIOD


  VOLUME BUDGET FOR ENTIRE MODEL AT END OF TIME STEP    1, STRESS PERIOD 570
  ---------------------------------------------------------------------------------------------------

     CUMULATIVE VOLUME      L**3       RATES FOR THIS TIME STEP      L**3/T          PACKAGE NAME    
     ------------------                 ------------------------                     ----------------

           IN:                                      IN:
           ---                                      ---
              STO-SS =           0.0000                STO-SS =           0.0000     STORAGE         
              STO-SY = 11061926443.3336                STO-SY =    15165366.5033     STORAGE         
                 WEL =           0.0000                   WEL =           0.0000     WEL_0           
                 DRN =           0.0000                   DRN =           0.0000     DRN_0           
                 RCH = 26371161169.0452                   RCH =     9441573.7025     RCH_0           

            TOTAL IN = 37433087612.3788              TOTAL IN =    24606940.2058

          OUT:                                     OUT:
          ----                                     ----
              STO-SS =           0.0000                STO-SS =           0.0000     STORAGE         
              STO-SY =  8492797640.2534                STO-SY =     2348857.7170     STORAGE         
                 WEL =  5719533322.6978                   WEL =     2473128.5107     WEL_0           
                 DRN = 23220748084.7328                   DRN =    19784945.3361     DRN_0           
                 RCH =           0.0000                   RCH =           0.0000     RCH_0           

           TOTAL OUT = 37433079047.6841             TOTAL OUT =    24606931.5638

            IN - OUT =        8564.6947              IN - OUT =           8.6420

 PERCENT DISCREPANCY =           0.00     PERCENT DISCREPANCY =           0.00




         TIME SUMMARY AT END OF TIME STEP    1 IN STRESS PERIOD  570
                          TIME STEP LENGTH =    1.00000    
                        STRESS PERIOD TIME =    1.00000    
                     TOTAL SIMULATION TIME =    570.000    

end timestep


start timestep kper="571" kstp="1" mode="normal"


 OUTPUT CONTROL FOR STRESS PERIOD 571 IS REPEATED USING SETTINGS FROM A PREVIOUS STRESS PERIOD.


 STRESS PERIOD 571 IS TRANSIENT


 REUSING WELS FROM LAST STRESS PERIOD

 REUSING DRNS FROM LAST STRESS PERIOD

 REUSING RCHS FROM LAST STRESS PERIOD


  VOLUME BUDGET FOR ENTIRE MODEL AT END OF TIME STEP    1, STRESS PERIOD 571
  ---------------------------------------------------------------------------------------------------

     CUMULATIVE VOLUME      L**3       RATES FOR THIS TIME STEP      L**3/T          PACKAGE NAME    
     ------------------                 ------------------------                     ----------------

           IN:                                      IN:
           ---                                      ---
              STO-SS =           0.0000                STO-SS =           0.0000     STORAGE         
              STO-SY = 11077889218.0251                STO-SY =    15962774.6915     STORAGE         
                 WEL =           0.0000                   WEL =           0.0000     WEL_0           
                 DRN =           0.0000                   DRN =           0.0000     DRN_0           
                 RCH = 26376581940.5298                   RCH =     5420771.4846     RCH_0           

            TOTAL IN = 37454471158.5549              TOTAL IN =    21383546.1761

          OUT:                                     OUT:
          ----                                     ----
              STO-SS =           0.0000                STO-SS =           0.0000     STORAGE         
              STO-SY =  8494178232.6517                STO-SY =     1380592.3982     STORAGE         
                 WEL =  5721793253.2127                   WEL =     2259930.5150     WEL_0           
                 DRN = 23238491108.8911                   DRN =    17743024.1582     DRN_0           
                 RCH =           0.0000                   RCH =           0.0000     RCH_0           

           TOTAL OUT = 37454462594.7555             TOTAL OUT =    21383547.0714

            IN - OUT =        8563.7994              IN - OUT =          -0.8953

 PERCENT DISCREPANCY =           0.00     PERCENT DISCREPANCY =          -0.00




         TIME SUMMARY AT END OF TIME STEP    1 IN STRESS PERIOD  571
                          TIME STEP LENGTH =    1.00000    
                        STRESS PERIOD TIME =    1.00000    
                     TOTAL SIMULATION TIME =    571.000    

end timestep


start timestep kper="572" kstp="1" mode="normal"


 OUTPUT CONTROL FOR STRESS PERIOD 572 IS REPEATED USING SETTINGS FROM A PREVIOUS STRESS PERIOD.


 STRESS PERIOD 572 IS TRANSIENT


 REUSING WELS FROM LAST STRESS PERIOD

 REUSING DRNS FROM LAST STRESS PERIOD

 REUSING RCHS FROM LAST STRESS PERIOD


  VOLUME BUDGET FOR ENTIRE MODEL AT END OF TIME STEP    1, STRESS PERIOD 572
  ---------------------------------------------------------------------------------------------------

     CUMULATIVE VOLUME      L**3       RATES FOR THIS TIME STEP      L**3/T          PACKAGE NAME    
     ------------------                 ------------------------                     ----------------

           IN:                                      IN:
           ---                                      ---
              STO-SS =           0.0000                STO-SS =           0.0000     STORAGE         
              STO-SY = 11093555168.4548                STO-SY =    15665950.4297     STORAGE         
                 WEL =           0.0000                   WEL =           0.0000     WEL_0           
                 DRN =           0.0000                   DRN =           0.0000     DRN_0           
                 RCH = 26387314343.4523                   RCH =    10732402.9225     RCH_0           

            TOTAL IN = 37480869511.9071              TOTAL IN =    26398353.3522

          OUT:                                     OUT:
          ----                                     ----
              STO-SS =           0.0000                STO-SS =           0.0000     STORAGE         
              STO-SY =  8496478625.2351                STO-SY =     2300392.5834     STORAGE         
                 WEL =  5726478882.4448                   WEL =     4685629.2320     WEL_0           
                 DRN = 23257903440.4047                   DRN =    19412331.5136     DRN_0           
                 RCH =           0.0000                   RCH =           0.0000     RCH_0           

           TOTAL OUT = 37480860948.0846             TOTAL OUT =    26398353.3291

            IN - OUT =        8563.8225              IN - OUT =       2.3138E-02

 PERCENT DISCREPANCY =           0.00     PERCENT DISCREPANCY =           0.00




         TIME SUMMARY AT END OF TIME STEP    1 IN STRESS PERIOD  572
                          TIME STEP LENGTH =    1.00000    
                        STRESS PERIOD TIME =    1.00000    
                     TOTAL SIMULATION TIME =    572.000    

end timestep


start timestep kper="573" kstp="1" mode="normal"


 OUTPUT CONTROL FOR STRESS PERIOD 573 IS REPEATED USING SETTINGS FROM A PREVIOUS STRESS PERIOD.


 STRESS PERIOD 573 IS TRANSIENT


 REUSING WELS FROM LAST STRESS PERIOD

 REUSING DRNS FROM LAST STRESS PERIOD

 REUSING RCHS FROM LAST STRESS PERIOD


  VOLUME BUDGET FOR ENTIRE MODEL AT END OF TIME STEP    1, STRESS PERIOD 573
  ---------------------------------------------------------------------------------------------------

     CUMULATIVE VOLUME      L**3       RATES FOR THIS TIME STEP      L**3/T          PACKAGE NAME    
     ------------------                 ------------------------                     ----------------

           IN:                                      IN:
           ---                                      ---
              STO-SS =           0.0000                STO-SS =           0.0000     STORAGE         
              STO-SY = 11109730920.5549                STO-SY =    16175752.1001     STORAGE         
                 WEL =           0.0000                   WEL =           0.0000     WEL_0           
                 DRN =           0.0000                   DRN =           0.0000     DRN_0           
                 RCH = 26396690958.3483                   RCH =     9376614.8960     RCH_0           

            TOTAL IN = 37506421878.9032              TOTAL IN =    25552366.9961

          OUT:                                     OUT:
          ----                                     ----
              STO-SS =           0.0000                STO-SS =           0.0000     STORAGE         
              STO-SY =  8498415464.1613                STO-SY =     1936838.9262     STORAGE         
                 WEL =  5732541138.3883                   WEL =     6062255.9435     WEL_0           
                 DRN = 23275456712.5018                   DRN =    17553272.0971     DRN_0           
                 RCH =           0.0000                   RCH =           0.0000     RCH_0           

           TOTAL OUT = 37506413315.0514             TOTAL OUT =    25552366.9668

            IN - OUT =        8563.8518              IN - OUT =       2.9258E-02

 PERCENT DISCREPANCY =           0.00     PERCENT DISCREPANCY =           0.00




         TIME SUMMARY AT END OF TIME STEP    1 IN STRESS PERIOD  573
                          TIME STEP LENGTH =    1.00000    
                        STRESS PERIOD TIME =    1.00000    
                     TOTAL SIMULATION TIME =    573.000    

end timestep


start timestep kper="574" kstp="1" mode="normal"


 OUTPUT CONTROL FOR STRESS PERIOD 574 IS REPEATED USING SETTINGS FROM A PREVIOUS STRESS PERIOD.


 STRESS PERIOD 574 IS TRANSIENT


 REUSING WELS FROM LAST STRESS PERIOD

 REUSING DRNS FROM LAST STRESS PERIOD

 REUSING RCHS FROM LAST STRESS PERIOD


  VOLUME BUDGET FOR ENTIRE MODEL AT END OF TIME STEP    1, STRESS PERIOD 574
  ---------------------------------------------------------------------------------------------------

     CUMULATIVE VOLUME      L**3       RATES FOR THIS TIME STEP      L**3/T          PACKAGE NAME    
     ------------------                 ------------------------                     ----------------

           IN:                                      IN:
           ---                                      ---
              STO-SS =           0.0000                STO-SS =           0.0000     STORAGE         
              STO-SY = 11139211660.7575                STO-SY =    29480740.2026     STORAGE         
                 WEL =           0.0000                   WEL =           0.0000     WEL_0           
                 DRN =           0.0000                   DRN =           0.0000     DRN_0           
                 RCH = 26417678768.1882                   RCH =    20987809.8399     RCH_0           

            TOTAL IN = 37556890428.9457              TOTAL IN =    50468550.0426

          OUT:                                     OUT:
          ----                                     ----
              STO-SS =           0.0000                STO-SS =           0.0000     STORAGE         
              STO-SY =  8503311262.6396                STO-SY =     4895798.4783     STORAGE         
                 WEL =  5758137280.6455                   WEL =    25596142.2573     WEL_0           
                 DRN = 23295433299.7398                   DRN =    19976587.2380     DRN_0           
                 RCH =           0.0000                   RCH =           0.0000     RCH_0           

           TOTAL OUT = 37556881843.0249             TOTAL OUT =    50468527.9736

            IN - OUT =        8585.9208              IN - OUT =          22.0690

 PERCENT DISCREPANCY =           0.00     PERCENT DISCREPANCY =           0.00




         TIME SUMMARY AT END OF TIME STEP    1 IN STRESS PERIOD  574
                          TIME STEP LENGTH =    1.00000    
                        STRESS PERIOD TIME =    1.00000    
                     TOTAL SIMULATION TIME =    574.000    

end timestep


start timestep kper="575" kstp="1" mode="normal"


 OUTPUT CONTROL FOR STRESS PERIOD 575 IS REPEATED USING SETTINGS FROM A PREVIOUS STRESS PERIOD.


 STRESS PERIOD 575 IS TRANSIENT


 REUSING WELS FROM LAST STRESS PERIOD

 REUSING DRNS FROM LAST STRESS PERIOD

 REUSING RCHS FROM LAST STRESS PERIOD


  VOLUME BUDGET FOR ENTIRE MODEL AT END OF TIME STEP    1, STRESS PERIOD 575
  ---------------------------------------------------------------------------------------------------

     CUMULATIVE VOLUME      L**3       RATES FOR THIS TIME STEP      L**3/T          PACKAGE NAME    
     ------------------                 ------------------------                     ----------------

           IN:                                      IN:
           ---                                      ---
              STO-SS =           0.0000                STO-SS =           0.0000     STORAGE         
              STO-SY = 11158212226.9351                STO-SY =    19000566.1776     STORAGE         
                 WEL =           0.0000                   WEL =           0.0000     WEL_0           
                 DRN =           0.0000                   DRN =           0.0000     DRN_0           
                 RCH = 26428390142.8300                   RCH =    10711374.6418     RCH_0           

            TOTAL IN = 37586602369.7651              TOTAL IN =    29711940.8193

          OUT:                                     OUT:
          ----                                     ----
              STO-SS =           0.0000                STO-SS =           0.0000     STORAGE         
              STO-SY =  8506160946.3475                STO-SY =     2849683.7079     STORAGE         
                 WEL =  5767707650.5938                   WEL =     9570369.9483     WEL_0           
                 DRN = 23312725175.5146                   DRN =    17291875.7748     DRN_0           
                 RCH =           0.0000                   RCH =           0.0000     RCH_0           

           TOTAL OUT = 37586593772.4559             TOTAL OUT =    29711929.4310

            IN - OUT =        8597.3091              IN - OUT =          11.3883

 PERCENT DISCREPANCY =           0.00     PERCENT DISCREPANCY =           0.00




         TIME SUMMARY AT END OF TIME STEP    1 IN STRESS PERIOD  575
                          TIME STEP LENGTH =    1.00000    
                        STRESS PERIOD TIME =    1.00000    
                     TOTAL SIMULATION TIME =    575.000    

end timestep


start timestep kper="576" kstp="1" mode="normal"


 OUTPUT CONTROL FOR STRESS PERIOD 576 IS REPEATED USING SETTINGS FROM A PREVIOUS STRESS PERIOD.


 STRESS PERIOD 576 IS TRANSIENT


 REUSING WELS FROM LAST STRESS PERIOD

 REUSING DRNS FROM LAST STRESS PERIOD

 REUSING RCHS FROM LAST STRESS PERIOD


  VOLUME BUDGET FOR ENTIRE MODEL AT END OF TIME STEP    1, STRESS PERIOD 576
  ---------------------------------------------------------------------------------------------------

     CUMULATIVE VOLUME      L**3       RATES FOR THIS TIME STEP      L**3/T          PACKAGE NAME    
     ------------------                 ------------------------                     ----------------

           IN:                                      IN:
           ---                                      ---
              STO-SS =           0.0000                STO-SS =           0.0000     STORAGE         
              STO-SY = 11173810916.5747                STO-SY =    15598689.6396     STORAGE         
                 WEL =           0.0000                   WEL =           0.0000     WEL_0           
                 DRN =           0.0000                   DRN =           0.0000     DRN_0           
                 RCH = 26435390179.5929                   RCH =     7000036.7629     RCH_0           

            TOTAL IN = 37609201096.1676              TOTAL IN =    22598726.4025

          OUT:                                     OUT:
          ----                                     ----
              STO-SS =           0.0000                STO-SS =           0.0000     STORAGE         
              STO-SY =  8508047933.6834                STO-SY =     1886987.3360     STORAGE         
                 WEL =  5769788036.0034                   WEL =     2080385.4096     WEL_0           
                 DRN = 23331356523.2575                   DRN =    18631347.7429     DRN_0           
                 RCH =           0.0000                   RCH =           0.0000     RCH_0           

           TOTAL OUT = 37609192492.9444             TOTAL OUT =    22598720.4884

            IN - OUT =        8603.2232              IN - OUT =           5.9141

 PERCENT DISCREPANCY =           0.00     PERCENT DISCREPANCY =           0.00




         TIME SUMMARY AT END OF TIME STEP    1 IN STRESS PERIOD  576
                          TIME STEP LENGTH =    1.00000    
                        STRESS PERIOD TIME =    1.00000    
                     TOTAL SIMULATION TIME =    576.000    

end timestep


start timestep kper="577" kstp="1" mode="normal"


 OUTPUT CONTROL FOR STRESS PERIOD 577 IS REPEATED USING SETTINGS FROM A PREVIOUS STRESS PERIOD.


 STRESS PERIOD 577 IS TRANSIENT


 REUSING WELS FROM LAST STRESS PERIOD

 REUSING DRNS FROM LAST STRESS PERIOD

 REUSING RCHS FROM LAST STRESS PERIOD


  VOLUME BUDGET FOR ENTIRE MODEL AT END OF TIME STEP    1, STRESS PERIOD 577
  ---------------------------------------------------------------------------------------------------

     CUMULATIVE VOLUME      L**3       RATES FOR THIS TIME STEP      L**3/T          PACKAGE NAME    
     ------------------                 ------------------------                     ----------------

           IN:                                      IN:
           ---                                      ---
              STO-SS =           0.0000                STO-SS =           0.0000     STORAGE         
              STO-SY = 11189290152.5716                STO-SY =    15479235.9969     STORAGE         
                 WEL =           0.0000                   WEL =           0.0000     WEL_0           
                 DRN =           0.0000                   DRN =           0.0000     DRN_0           
                 RCH = 26440455869.5903                   RCH =     5065689.9974     RCH_0           

            TOTAL IN = 37629746022.1618              TOTAL IN =    20544925.9942

          OUT:                                     OUT:
          ----                                     ----
              STO-SS =           0.0000                STO-SS =           0.0000     STORAGE         
              STO-SY =  8509641270.9155                STO-SY =     1593337.2320     STORAGE         
                 WEL =  5771798906.1419                   WEL =     2010870.1384     WEL_0           
                 DRN = 23348297242.8663                   DRN =    16940719.6088     DRN_0           
                 RCH =           0.0000                   RCH =           0.0000     RCH_0           

           TOTAL OUT = 37629737419.9236             TOTAL OUT =    20544926.9792

            IN - OUT =        8602.2383              IN - OUT =          -0.9850

 PERCENT DISCREPANCY =           0.00     PERCENT DISCREPANCY =          -0.00




         TIME SUMMARY AT END OF TIME STEP    1 IN STRESS PERIOD  577
                          TIME STEP LENGTH =    1.00000    
                        STRESS PERIOD TIME =    1.00000    
                     TOTAL SIMULATION TIME =    577.000    

end timestep


start timestep kper="578" kstp="1" mode="normal"


 OUTPUT CONTROL FOR STRESS PERIOD 578 IS REPEATED USING SETTINGS FROM A PREVIOUS STRESS PERIOD.


 STRESS PERIOD 578 IS TRANSIENT


 REUSING WELS FROM LAST STRESS PERIOD

 REUSING DRNS FROM LAST STRESS PERIOD

 REUSING RCHS FROM LAST STRESS PERIOD


  VOLUME BUDGET FOR ENTIRE MODEL AT END OF TIME STEP    1, STRESS PERIOD 578
  ---------------------------------------------------------------------------------------------------

     CUMULATIVE VOLUME      L**3       RATES FOR THIS TIME STEP      L**3/T          PACKAGE NAME    
     ------------------                 ------------------------                     ----------------

           IN:                                      IN:
           ---                                      ---
              STO-SS =           0.0000                STO-SS =           0.0000     STORAGE         
              STO-SY = 11212304919.3344                STO-SY =    23014766.7628     STORAGE         
                 WEL =           0.0000                   WEL =           0.0000     WEL_0           
                 DRN =           0.0000                   DRN =           0.0000     DRN_0           
                 RCH = 26457903689.9501                   RCH =    17447820.3598     RCH_0           

            TOTAL IN = 37670208609.2845              TOTAL IN =    40462587.1227

          OUT:                                     OUT:
          ----                                     ----
              STO-SS =           0.0000                STO-SS =           0.0000     STORAGE         
              STO-SY =  8514008551.0652                STO-SY =     4367280.1497     STORAGE         
                 WEL =  5788183345.1982                   WEL =    16384439.0563     WEL_0           
                 DRN = 23368008101.8562                   DRN =    19710858.9899     DRN_0           
                 RCH =           0.0000                   RCH =           0.0000     RCH_0           

           TOTAL OUT = 37670199998.1195             TOTAL OUT =    40462578.1959

            IN - OUT =        8611.1650              IN - OUT =           8.9268

 PERCENT DISCREPANCY =           0.00     PERCENT DISCREPANCY =           0.00




         TIME SUMMARY AT END OF TIME STEP    1 IN STRESS PERIOD  578
                          TIME STEP LENGTH =    1.00000    
                        STRESS PERIOD TIME =    1.00000    
                     TOTAL SIMULATION TIME =    578.000    

end timestep


start timestep kper="579" kstp="1" mode="normal"


 OUTPUT CONTROL FOR STRESS PERIOD 579 IS REPEATED USING SETTINGS FROM A PREVIOUS STRESS PERIOD.


 STRESS PERIOD 579 IS TRANSIENT


 REUSING WELS FROM LAST STRESS PERIOD

 REUSING DRNS FROM LAST STRESS PERIOD

 REUSING RCHS FROM LAST STRESS PERIOD


  VOLUME BUDGET FOR ENTIRE MODEL AT END OF TIME STEP    1, STRESS PERIOD 579
  ---------------------------------------------------------------------------------------------------

     CUMULATIVE VOLUME      L**3       RATES FOR THIS TIME STEP      L**3/T          PACKAGE NAME    
     ------------------                 ------------------------                     ----------------

           IN:                                      IN:
           ---                                      ---
              STO-SS =           0.0000                STO-SS =           0.0000     STORAGE         
              STO-SY = 11227273059.0377                STO-SY =    14968139.7033     STORAGE         
                 WEL =           0.0000                   WEL =           0.0000     WEL_0           
                 DRN =           0.0000                   DRN =           0.0000     DRN_0           
                 RCH = 26464603134.3543                   RCH =     6699444.4042     RCH_0           

            TOTAL IN = 37691876193.3921              TOTAL IN =    21667584.1075

          OUT:                                     OUT:
          ----                                     ----
              STO-SS =           0.0000                STO-SS =           0.0000     STORAGE         
              STO-SY =  8516004749.9912                STO-SY =     1996198.9260     STORAGE         
                 WEL =  5791009231.9804                   WEL =     2825886.7822     WEL_0           
                 DRN = 23384853591.9436                   DRN =    16845490.0874     DRN_0           
                 RCH =           0.0000                   RCH =           0.0000     RCH_0           

           TOTAL OUT = 37691867573.9151             TOTAL OUT =    21667575.7956

            IN - OUT =        8619.4770              IN - OUT =           8.3119

 PERCENT DISCREPANCY =           0.00     PERCENT DISCREPANCY =           0.00




         TIME SUMMARY AT END OF TIME STEP    1 IN STRESS PERIOD  579
                          TIME STEP LENGTH =    1.00000    
                        STRESS PERIOD TIME =    1.00000    
                     TOTAL SIMULATION TIME =    579.000    

end timestep


start timestep kper="580" kstp="1" mode="normal"


 OUTPUT CONTROL FOR STRESS PERIOD 580 IS REPEATED USING SETTINGS FROM A PREVIOUS STRESS PERIOD.


 STRESS PERIOD 580 IS TRANSIENT


 REUSING WELS FROM LAST STRESS PERIOD

 REUSING DRNS FROM LAST STRESS PERIOD

 REUSING RCHS FROM LAST STRESS PERIOD


  VOLUME BUDGET FOR ENTIRE MODEL AT END OF TIME STEP    1, STRESS PERIOD 580
  ---------------------------------------------------------------------------------------------------

     CUMULATIVE VOLUME      L**3       RATES FOR THIS TIME STEP      L**3/T          PACKAGE NAME    
     ------------------                 ------------------------                     ----------------

           IN:                                      IN:
           ---                                      ---
              STO-SS =           0.0000                STO-SS =           0.0000     STORAGE         
              STO-SY = 11242345148.1920                STO-SY =    15072089.1542     STORAGE         
                 WEL =           0.0000                   WEL =           0.0000     WEL_0           
                 DRN =           0.0000                   DRN =           0.0000     DRN_0           
                 RCH = 26470915384.8361                   RCH =     6312250.4818     RCH_0           

            TOTAL IN = 37713260533.0280              TOTAL IN =    21384339.6360

          OUT:                                     OUT:
          ----                                     ----
              STO-SS =           0.0000                STO-SS =           0.0000     STORAGE         
              STO-SY =  8517705891.6641                STO-SY =     1701141.6729     STORAGE         
                 WEL =  5792330830.6298                   WEL =     1321598.6494     WEL_0           
                 DRN = 23403215188.6103                   DRN =    18361596.6668     DRN_0           
                 RCH =           0.0000                   RCH =           0.0000     RCH_0           

           TOTAL OUT = 37713251910.9043             TOTAL OUT =    21384336.9891

            IN - OUT =        8622.1238              IN - OUT =           2.6468

 PERCENT DISCREPANCY =           0.00     PERCENT DISCREPANCY =           0.00




         TIME SUMMARY AT END OF TIME STEP    1 IN STRESS PERIOD  580
                          TIME STEP LENGTH =    1.00000    
                        STRESS PERIOD TIME =    1.00000    
                     TOTAL SIMULATION TIME =    580.000    

end timestep


start timestep kper="581" kstp="1" mode="normal"


 OUTPUT CONTROL FOR STRESS PERIOD 581 IS REPEATED USING SETTINGS FROM A PREVIOUS STRESS PERIOD.


 STRESS PERIOD 581 IS TRANSIENT


 REUSING WELS FROM LAST STRESS PERIOD

 REUSING DRNS FROM LAST STRESS PERIOD

 REUSING RCHS FROM LAST STRESS PERIOD


  VOLUME BUDGET FOR ENTIRE MODEL AT END OF TIME STEP    1, STRESS PERIOD 581
  ---------------------------------------------------------------------------------------------------

     CUMULATIVE VOLUME      L**3       RATES FOR THIS TIME STEP      L**3/T          PACKAGE NAME    
     ------------------                 ------------------------                     ----------------

           IN:                                      IN:
           ---                                      ---
              STO-SS =           0.0000                STO-SS =           0.0000     STORAGE         
              STO-SY = 11266062668.9946                STO-SY =    23717520.8027     STORAGE         
                 WEL =           0.0000                   WEL =           0.0000     WEL_0           
                 DRN =           0.0000                   DRN =           0.0000     DRN_0           
                 RCH = 26481804534.6902                   RCH =    10889149.8541     RCH_0           

            TOTAL IN = 37747867203.6849              TOTAL IN =    34606670.6568

          OUT:                                     OUT:
          ----                                     ----
              STO-SS =           0.0000                STO-SS =           0.0000     STORAGE         
              STO-SY =  8520340253.7655                STO-SY =     2634362.1015     STORAGE         
                 WEL =  5807787546.6509                   WEL =    15456716.0211     WEL_0           
                 DRN = 23419730831.4226                   DRN =    16515642.8122     DRN_0           
                 RCH =           0.0000                   RCH =           0.0000     RCH_0           

           TOTAL OUT = 37747858631.8390             TOTAL OUT =    34606720.9348

            IN - OUT =        8571.8458              IN - OUT =         -50.2780

 PERCENT DISCREPANCY =           0.00     PERCENT DISCREPANCY =          -0.00




         TIME SUMMARY AT END OF TIME STEP    1 IN STRESS PERIOD  581
                          TIME STEP LENGTH =    1.00000    
                        STRESS PERIOD TIME =    1.00000    
                     TOTAL SIMULATION TIME =    581.000    

end timestep


start timestep kper="582" kstp="1" mode="normal"


 OUTPUT CONTROL FOR STRESS PERIOD 582 IS REPEATED USING SETTINGS FROM A PREVIOUS STRESS PERIOD.


 STRESS PERIOD 582 IS TRANSIENT


 REUSING WELS FROM LAST STRESS PERIOD

 REUSING DRNS FROM LAST STRESS PERIOD

 REUSING RCHS FROM LAST STRESS PERIOD


  VOLUME BUDGET FOR ENTIRE MODEL AT END OF TIME STEP    1, STRESS PERIOD 582
  ---------------------------------------------------------------------------------------------------

     CUMULATIVE VOLUME      L**3       RATES FOR THIS TIME STEP      L**3/T          PACKAGE NAME    
     ------------------                 ------------------------                     ----------------

           IN:                                      IN:
           ---                                      ---
              STO-SS =           0.0000                STO-SS =           0.0000     STORAGE         
              STO-SY = 11298700966.9325                STO-SY =    32638297.9379     STORAGE         
                 WEL =           0.0000                   WEL =           0.0000     WEL_0           
                 DRN =           0.0000                   DRN =           0.0000     DRN_0           
                 RCH = 26498798993.5015                   RCH =    16994458.8112     RCH_0           

            TOTAL IN = 37797499960.4340              TOTAL IN =    49632756.7491

          OUT:                                     OUT:
          ----                                     ----
              STO-SS =           0.0000                STO-SS =           0.0000     STORAGE         
              STO-SY =  8523452126.0886                STO-SY =     3111872.3230     STORAGE         
                 WEL =  5836528801.9964                   WEL =    28741255.3455     WEL_0           
                 DRN = 23437510461.6040                   DRN =    17779630.1814     DRN_0           
                 RCH =           0.0000                   RCH =           0.0000     RCH_0           

           TOTAL OUT = 37797491389.6890             TOTAL OUT =    49632757.8500

            IN - OUT =        8570.7450              IN - OUT =          -1.1008

 PERCENT DISCREPANCY =           0.00     PERCENT DISCREPANCY =          -0.00




         TIME SUMMARY AT END OF TIME STEP    1 IN STRESS PERIOD  582
                          TIME STEP LENGTH =    1.00000    
                        STRESS PERIOD TIME =    1.00000    
                     TOTAL SIMULATION TIME =    582.000    

end timestep


start timestep kper="583" kstp="1" mode="normal"


 OUTPUT CONTROL FOR STRESS PERIOD 583 IS REPEATED USING SETTINGS FROM A PREVIOUS STRESS PERIOD.


 STRESS PERIOD 583 IS TRANSIENT


 REUSING WELS FROM LAST STRESS PERIOD

 REUSING DRNS FROM LAST STRESS PERIOD

 REUSING RCHS FROM LAST STRESS PERIOD


  VOLUME BUDGET FOR ENTIRE MODEL AT END OF TIME STEP    1, STRESS PERIOD 583
  ---------------------------------------------------------------------------------------------------

     CUMULATIVE VOLUME      L**3       RATES FOR THIS TIME STEP      L**3/T          PACKAGE NAME    
     ------------------                 ------------------------                     ----------------

           IN:                                      IN:
           ---                                      ---
              STO-SS =           0.0000                STO-SS =           0.0000     STORAGE         
              STO-SY = 11333372488.8362                STO-SY =    34671521.9037     STORAGE         
                 WEL =           0.0000                   WEL =           0.0000     WEL_0           
                 DRN =           0.0000                   DRN =           0.0000     DRN_0           
                 RCH = 26518272136.0580                   RCH =    19473142.5565     RCH_0           

            TOTAL IN = 37851644624.8942              TOTAL IN =    54144664.4602

          OUT:                                     OUT:
          ----                                     ----
              STO-SS =           0.0000                STO-SS =           0.0000     STORAGE         
              STO-SY =  8528101390.4575                STO-SY =     4649264.3690     STORAGE         
                 WEL =  5869713614.7817                   WEL =    33184812.7853     WEL_0           
                 DRN = 23453821044.4235                   DRN =    16310582.8195     DRN_0           
                 RCH =           0.0000                   RCH =           0.0000     RCH_0           

           TOTAL OUT = 37851636049.6627             TOTAL OUT =    54144659.9738

            IN - OUT =        8575.2315              IN - OUT =           4.4865

 PERCENT DISCREPANCY =           0.00     PERCENT DISCREPANCY =           0.00




         TIME SUMMARY AT END OF TIME STEP    1 IN STRESS PERIOD  583
                          TIME STEP LENGTH =    1.00000    
                        STRESS PERIOD TIME =    1.00000    
                     TOTAL SIMULATION TIME =    583.000    

end timestep


start timestep kper="584" kstp="1" mode="normal"


 OUTPUT CONTROL FOR STRESS PERIOD 584 IS REPEATED USING SETTINGS FROM A PREVIOUS STRESS PERIOD.


 STRESS PERIOD 584 IS TRANSIENT


 REUSING WELS FROM LAST STRESS PERIOD

 REUSING DRNS FROM LAST STRESS PERIOD

 REUSING RCHS FROM LAST STRESS PERIOD


  VOLUME BUDGET FOR ENTIRE MODEL AT END OF TIME STEP    1, STRESS PERIOD 584
  ---------------------------------------------------------------------------------------------------

     CUMULATIVE VOLUME      L**3       RATES FOR THIS TIME STEP      L**3/T          PACKAGE NAME    
     ------------------                 ------------------------                     ----------------

           IN:                                      IN:
           ---                                      ---
              STO-SS =           0.0000                STO-SS =           0.0000     STORAGE         
              STO-SY = 11362059282.3659                STO-SY =    28686793.5297     STORAGE         
                 WEL =           0.0000                   WEL =           0.0000     WEL_0           
                 DRN =           0.0000                   DRN =           0.0000     DRN_0           
                 RCH = 26537130350.6465                   RCH =    18858214.5885     RCH_0           

            TOTAL IN = 37899189633.0124              TOTAL IN =    47545008.1182

          OUT:                                     OUT:
          ----                                     ----
              STO-SS =           0.0000                STO-SS =           0.0000     STORAGE         
              STO-SY =  8532028077.1432                STO-SY =     3926686.6857     STORAGE         
                 WEL =  5895252821.2663                   WEL =    25539206.4846     WEL_0           
                 DRN = 23471900164.2489                   DRN =    18079119.8253     DRN_0           
                 RCH =           0.0000                   RCH =           0.0000     RCH_0           

           TOTAL OUT = 37899181062.6583             TOTAL OUT =    47545012.9956

            IN - OUT =        8570.3541              IN - OUT =          -4.8774

 PERCENT DISCREPANCY =           0.00     PERCENT DISCREPANCY =          -0.00




         TIME SUMMARY AT END OF TIME STEP    1 IN STRESS PERIOD  584
                          TIME STEP LENGTH =    1.00000    
                        STRESS PERIOD TIME =    1.00000    
                     TOTAL SIMULATION TIME =    584.000    

end timestep


start timestep kper="585" kstp="1" mode="normal"


 OUTPUT CONTROL FOR STRESS PERIOD 585 IS REPEATED USING SETTINGS FROM A PREVIOUS STRESS PERIOD.


 STRESS PERIOD 585 IS TRANSIENT


 REUSING WELS FROM LAST STRESS PERIOD

 REUSING DRNS FROM LAST STRESS PERIOD

 REUSING RCHS FROM LAST STRESS PERIOD


  VOLUME BUDGET FOR ENTIRE MODEL AT END OF TIME STEP    1, STRESS PERIOD 585
  ---------------------------------------------------------------------------------------------------

     CUMULATIVE VOLUME      L**3       RATES FOR THIS TIME STEP      L**3/T          PACKAGE NAME    
     ------------------                 ------------------------                     ----------------

           IN:                                      IN:
           ---                                      ---
              STO-SS =           0.0000                STO-SS =           0.0000     STORAGE         
              STO-SY = 11389248499.4217                STO-SY =    27189217.0558     STORAGE         
                 WEL =           0.0000                   WEL =           0.0000     WEL_0           
                 DRN =           0.0000                   DRN =           0.0000     DRN_0           
                 RCH = 26553479874.8909                   RCH =    16349524.2444     RCH_0           

            TOTAL IN = 37942728374.3126              TOTAL IN =    43538741.3003

          OUT:                                     OUT:
          ----                                     ----
              STO-SS =           0.0000                STO-SS =           0.0000     STORAGE         
              STO-SY =  8535651253.9364                STO-SY =     3623176.7932     STORAGE         
                 WEL =  5918646700.6317                   WEL =    23393879.3655     WEL_0           
                 DRN = 23488421816.4402                   DRN =    16521652.1913     DRN_0           
                 RCH =           0.0000                   RCH =           0.0000     RCH_0           

           TOTAL OUT = 37942719771.0083             TOTAL OUT =    43538708.3500

            IN - OUT =        8603.3043              IN - OUT =          32.9503

 PERCENT DISCREPANCY =           0.00     PERCENT DISCREPANCY =           0.00




         TIME SUMMARY AT END OF TIME STEP    1 IN STRESS PERIOD  585
                          TIME STEP LENGTH =    1.00000    
                        STRESS PERIOD TIME =    1.00000    
                     TOTAL SIMULATION TIME =    585.000    

end timestep


start timestep kper="586" kstp="1" mode="normal"


 OUTPUT CONTROL FOR STRESS PERIOD 586 IS REPEATED USING SETTINGS FROM A PREVIOUS STRESS PERIOD.


 STRESS PERIOD 586 IS TRANSIENT


 REUSING WELS FROM LAST STRESS PERIOD

 REUSING DRNS FROM LAST STRESS PERIOD

 REUSING RCHS FROM LAST STRESS PERIOD


  VOLUME BUDGET FOR ENTIRE MODEL AT END OF TIME STEP    1, STRESS PERIOD 586
  ---------------------------------------------------------------------------------------------------

     CUMULATIVE VOLUME      L**3       RATES FOR THIS TIME STEP      L**3/T          PACKAGE NAME    
     ------------------                 ------------------------                     ----------------

           IN:                                      IN:
           ---                                      ---
              STO-SS =           0.0000                STO-SS =           0.0000     STORAGE         
              STO-SY = 11404897841.9439                STO-SY =    15649342.5221     STORAGE         
                 WEL =           0.0000                   WEL =           0.0000     WEL_0           
                 DRN =           0.0000                   DRN =           0.0000     DRN_0           
                 RCH = 26562229968.3450                   RCH =     8750093.4541     RCH_0           

            TOTAL IN = 37967127810.2889              TOTAL IN =    24399435.9763

          OUT:                                     OUT:
          ----                                     ----
              STO-SS =           0.0000                STO-SS =           0.0000     STORAGE         
              STO-SY =  8538133400.1439                STO-SY =     2482146.2076     STORAGE         
                 WEL =  5923365216.3555                   WEL =     4718515.7237     WEL_0           
                 DRN = 23505620602.2276                   DRN =    17198785.7874     DRN_0           
                 RCH =           0.0000                   RCH =           0.0000     RCH_0           

           TOTAL OUT = 37967119218.7270             TOTAL OUT =    24399447.7187

            IN - OUT =        8591.5619              IN - OUT =         -11.7424

 PERCENT DISCREPANCY =           0.00     PERCENT DISCREPANCY =          -0.00




         TIME SUMMARY AT END OF TIME STEP    1 IN STRESS PERIOD  586
                          TIME STEP LENGTH =    1.00000    
                        STRESS PERIOD TIME =    1.00000    
                     TOTAL SIMULATION TIME =    586.000    

end timestep


start timestep kper="587" kstp="1" mode="normal"


 OUTPUT CONTROL FOR STRESS PERIOD 587 IS REPEATED USING SETTINGS FROM A PREVIOUS STRESS PERIOD.


 STRESS PERIOD 587 IS TRANSIENT


 REUSING WELS FROM LAST STRESS PERIOD

 REUSING DRNS FROM LAST STRESS PERIOD

 REUSING RCHS FROM LAST STRESS PERIOD


  VOLUME BUDGET FOR ENTIRE MODEL AT END OF TIME STEP    1, STRESS PERIOD 587
  ---------------------------------------------------------------------------------------------------

     CUMULATIVE VOLUME      L**3       RATES FOR THIS TIME STEP      L**3/T          PACKAGE NAME    
     ------------------                 ------------------------                     ----------------

           IN:                                      IN:
           ---                                      ---
              STO-SS =           0.0000                STO-SS =           0.0000     STORAGE         
              STO-SY = 11420766185.5665                STO-SY =    15868343.6226     STORAGE         
                 WEL =           0.0000                   WEL =           0.0000     WEL_0           
                 DRN =           0.0000                   DRN =           0.0000     DRN_0           
                 RCH = 26569432459.4456                   RCH =     7202491.1005     RCH_0           

            TOTAL IN = 37990198645.0120              TOTAL IN =    23070834.7231

          OUT:                                     OUT:
          ----                                     ----
              STO-SS =           0.0000                STO-SS =           0.0000     STORAGE         
              STO-SY =  8540493355.6805                STO-SY =     2359955.5365     STORAGE         
                 WEL =  5928539159.0751                   WEL =     5173942.7196     WEL_0           
                 DRN = 23521157538.8889                   DRN =    15536936.6613     DRN_0           
                 RCH =           0.0000                   RCH =           0.0000     RCH_0           

           TOTAL OUT = 37990190053.6445             TOTAL OUT =    23070834.9175

            IN - OUT =        8591.3676              IN - OUT =          -0.1943

 PERCENT DISCREPANCY =           0.00     PERCENT DISCREPANCY =          -0.00




         TIME SUMMARY AT END OF TIME STEP    1 IN STRESS PERIOD  587
                          TIME STEP LENGTH =    1.00000    
                        STRESS PERIOD TIME =    1.00000    
                     TOTAL SIMULATION TIME =    587.000    

end timestep


start timestep kper="588" kstp="1" mode="normal"


 OUTPUT CONTROL FOR STRESS PERIOD 588 IS REPEATED USING SETTINGS FROM A PREVIOUS STRESS PERIOD.


 STRESS PERIOD 588 IS TRANSIENT


 REUSING WELS FROM LAST STRESS PERIOD

 REUSING DRNS FROM LAST STRESS PERIOD

 REUSING RCHS FROM LAST STRESS PERIOD


  VOLUME BUDGET FOR ENTIRE MODEL AT END OF TIME STEP    1, STRESS PERIOD 588
  ---------------------------------------------------------------------------------------------------

     CUMULATIVE VOLUME      L**3       RATES FOR THIS TIME STEP      L**3/T          PACKAGE NAME    
     ------------------                 ------------------------                     ----------------

           IN:                                      IN:
           ---                                      ---
              STO-SS =           0.0000                STO-SS =           0.0000     STORAGE         
              STO-SY = 11439320238.6581                STO-SY =    18554053.0916     STORAGE         
                 WEL =           0.0000                   WEL =           0.0000     WEL_0           
                 DRN =           0.0000                   DRN =           0.0000     DRN_0           
                 RCH = 26581477337.9947                   RCH =    12044878.5492     RCH_0           

            TOTAL IN = 38020797576.6528              TOTAL IN =    30598931.6407

          OUT:                                     OUT:
          ----                                     ----
              STO-SS =           0.0000                STO-SS =           0.0000     STORAGE         
              STO-SY =  8543263803.3763                STO-SY =     2770447.6958     STORAGE         
                 WEL =  5939102830.0495                   WEL =    10563670.9744     WEL_0           
                 DRN = 23538422351.8189                   DRN =    17264812.9301     DRN_0           
                 RCH =           0.0000                   RCH =           0.0000     RCH_0           

           TOTAL OUT = 38020788985.2447             TOTAL OUT =    30598931.6003

            IN - OUT =        8591.4081              IN - OUT =       4.0481E-02

 PERCENT DISCREPANCY =           0.00     PERCENT DISCREPANCY =           0.00




         TIME SUMMARY AT END OF TIME STEP    1 IN STRESS PERIOD  588
                          TIME STEP LENGTH =    1.00000    
                        STRESS PERIOD TIME =    1.00000    
                     TOTAL SIMULATION TIME =    588.000    

end timestep


start timestep kper="589" kstp="1" mode="normal"


 OUTPUT CONTROL FOR STRESS PERIOD 589 IS REPEATED USING SETTINGS FROM A PREVIOUS STRESS PERIOD.


 STRESS PERIOD 589 IS TRANSIENT


 REUSING WELS FROM LAST STRESS PERIOD

 REUSING DRNS FROM LAST STRESS PERIOD

 REUSING RCHS FROM LAST STRESS PERIOD


  VOLUME BUDGET FOR ENTIRE MODEL AT END OF TIME STEP    1, STRESS PERIOD 589
  ---------------------------------------------------------------------------------------------------

     CUMULATIVE VOLUME      L**3       RATES FOR THIS TIME STEP      L**3/T          PACKAGE NAME    
     ------------------                 ------------------------                     ----------------

           IN:                                      IN:
           ---                                      ---
              STO-SS =           0.0000                STO-SS =           0.0000     STORAGE         
              STO-SY = 11456420723.4981                STO-SY =    17100484.8400     STORAGE         
                 WEL =           0.0000                   WEL =           0.0000     WEL_0           
                 DRN =           0.0000                   DRN =           0.0000     DRN_0           
                 RCH = 26589687553.8271                   RCH =     8210215.8324     RCH_0           

            TOTAL IN = 38046108277.3251              TOTAL IN =    25310700.6724

          OUT:                                     OUT:
          ----                                     ----
              STO-SS =           0.0000                STO-SS =           0.0000     STORAGE         
              STO-SY =  8545687450.9413                STO-SY =     2423647.5650     STORAGE         
                 WEL =  5946541632.9588                   WEL =     7438802.9093     WEL_0           
                 DRN = 23553870615.3567                   DRN =    15448263.5377     DRN_0           
                 RCH =           0.0000                   RCH =           0.0000     RCH_0           

           TOTAL OUT = 38046099699.2567             TOTAL OUT =    25310714.0120

            IN - OUT =        8578.0684              IN - OUT =         -13.3397

 PERCENT DISCREPANCY =           0.00     PERCENT DISCREPANCY =          -0.00




         TIME SUMMARY AT END OF TIME STEP    1 IN STRESS PERIOD  589
                          TIME STEP LENGTH =    1.00000    
                        STRESS PERIOD TIME =    1.00000    
                     TOTAL SIMULATION TIME =    589.000    

end timestep


start timestep kper="590" kstp="1" mode="normal"


 OUTPUT CONTROL FOR STRESS PERIOD 590 IS REPEATED USING SETTINGS FROM A PREVIOUS STRESS PERIOD.


 STRESS PERIOD 590 IS TRANSIENT


 REUSING WELS FROM LAST STRESS PERIOD

 REUSING DRNS FROM LAST STRESS PERIOD

 REUSING RCHS FROM LAST STRESS PERIOD


  VOLUME BUDGET FOR ENTIRE MODEL AT END OF TIME STEP    1, STRESS PERIOD 590
  ---------------------------------------------------------------------------------------------------

     CUMULATIVE VOLUME      L**3       RATES FOR THIS TIME STEP      L**3/T          PACKAGE NAME    
     ------------------                 ------------------------                     ----------------

           IN:                                      IN:
           ---                                      ---
              STO-SS =           0.0000                STO-SS =           0.0000     STORAGE         
              STO-SY = 11471609684.9354                STO-SY =    15188961.4374     STORAGE         
                 WEL =           0.0000                   WEL =           0.0000     WEL_0           
                 DRN =           0.0000                   DRN =           0.0000     DRN_0           
                 RCH = 26597302352.8479                   RCH =     7614799.0208     RCH_0           

            TOTAL IN = 38068912037.7833              TOTAL IN =    22803760.4581

          OUT:                                     OUT:
          ----                                     ----
              STO-SS =           0.0000                STO-SS =           0.0000     STORAGE         
              STO-SY =  8547873811.0439                STO-SY =     2186360.1026     STORAGE         
                 WEL =  5950284705.2533                   WEL =     3743072.2945     WEL_0           
                 DRN = 23570744934.6022                   DRN =    16874319.2455     DRN_0           
                 RCH =           0.0000                   RCH =           0.0000     RCH_0           

           TOTAL OUT = 38068903450.8993             TOTAL OUT =    22803751.6426

            IN - OUT =        8586.8840              IN - OUT =           8.8156

 PERCENT DISCREPANCY =           0.00     PERCENT DISCREPANCY =           0.00




         TIME SUMMARY AT END OF TIME STEP    1 IN STRESS PERIOD  590
                          TIME STEP LENGTH =    1.00000    
                        STRESS PERIOD TIME =    1.00000    
                     TOTAL SIMULATION TIME =    590.000    

end timestep


start timestep kper="591" kstp="1" mode="normal"


 OUTPUT CONTROL FOR STRESS PERIOD 591 IS REPEATED USING SETTINGS FROM A PREVIOUS STRESS PERIOD.


 STRESS PERIOD 591 IS TRANSIENT


 REUSING WELS FROM LAST STRESS PERIOD

 REUSING DRNS FROM LAST STRESS PERIOD

 REUSING RCHS FROM LAST STRESS PERIOD


  VOLUME BUDGET FOR ENTIRE MODEL AT END OF TIME STEP    1, STRESS PERIOD 591
  ---------------------------------------------------------------------------------------------------

     CUMULATIVE VOLUME      L**3       RATES FOR THIS TIME STEP      L**3/T          PACKAGE NAME    
     ------------------                 ------------------------                     ----------------

           IN:                                      IN:
           ---                                      ---
              STO-SS =           0.0000                STO-SS =           0.0000     STORAGE         
              STO-SY = 11503734071.2659                STO-SY =    32124386.3305     STORAGE         
                 WEL =           0.0000                   WEL =           0.0000     WEL_0           
                 DRN =           0.0000                   DRN =           0.0000     DRN_0           
                 RCH = 26617734215.8371                   RCH =    20431862.9892     RCH_0           

            TOTAL IN = 38121468287.1030              TOTAL IN =    52556249.3197

          OUT:                                     OUT:
          ----                                     ----
              STO-SS =           0.0000                STO-SS =           0.0000     STORAGE         
              STO-SY =  8553471362.2514                STO-SY =     5597551.2076     STORAGE         
                 WEL =  5981284680.5625                   WEL =    30999975.3092     WEL_0           
                 DRN = 23586703639.6959                   DRN =    15958705.0937     DRN_0           
                 RCH =           0.0000                   RCH =           0.0000     RCH_0           

           TOTAL OUT = 38121459682.5098             TOTAL OUT =    52556231.6105

            IN - OUT =        8604.5932              IN - OUT =          17.7092

 PERCENT DISCREPANCY =           0.00     PERCENT DISCREPANCY =           0.00




         TIME SUMMARY AT END OF TIME STEP    1 IN STRESS PERIOD  591
                          TIME STEP LENGTH =    1.00000    
                        STRESS PERIOD TIME =    1.00000    
                     TOTAL SIMULATION TIME =    591.000    

end timestep


start timestep kper="592" kstp="1" mode="normal"


 OUTPUT CONTROL FOR STRESS PERIOD 592 IS REPEATED USING SETTINGS FROM A PREVIOUS STRESS PERIOD.


 STRESS PERIOD 592 IS TRANSIENT


 REUSING WELS FROM LAST STRESS PERIOD

 REUSING DRNS FROM LAST STRESS PERIOD

 REUSING RCHS FROM LAST STRESS PERIOD


  VOLUME BUDGET FOR ENTIRE MODEL AT END OF TIME STEP    1, STRESS PERIOD 592
  ---------------------------------------------------------------------------------------------------

     CUMULATIVE VOLUME      L**3       RATES FOR THIS TIME STEP      L**3/T          PACKAGE NAME    
     ------------------                 ------------------------                     ----------------

           IN:                                      IN:
           ---                                      ---
              STO-SS =           0.0000                STO-SS =           0.0000     STORAGE         
              STO-SY = 11522558228.0347                STO-SY =    18824156.7688     STORAGE         
                 WEL =           0.0000                   WEL =           0.0000     WEL_0           
                 DRN =           0.0000                   DRN =           0.0000     DRN_0           
                 RCH = 26629685461.2278                   RCH =    11951245.3907     RCH_0           

            TOTAL IN = 38152243689.2625              TOTAL IN =    30775402.1595

          OUT:                                     OUT:
          ----                                     ----
              STO-SS =           0.0000                STO-SS =           0.0000     STORAGE         
              STO-SY =  8556338169.3421                STO-SY =     2866807.0907     STORAGE         
                 WEL =  5992573769.7439                   WEL =    11289089.1814     WEL_0           
                 DRN = 23603323145.5347                   DRN =    16619505.8388     DRN_0           
                 RCH =           0.0000                   RCH =           0.0000     RCH_0           

           TOTAL OUT = 38152235084.6208             TOTAL OUT =    30775402.1109

            IN - OUT =        8604.6417              IN - OUT =       4.8544E-02

 PERCENT DISCREPANCY =           0.00     PERCENT DISCREPANCY =           0.00




         TIME SUMMARY AT END OF TIME STEP    1 IN STRESS PERIOD  592
                          TIME STEP LENGTH =    1.00000    
                        STRESS PERIOD TIME =    1.00000    
                     TOTAL SIMULATION TIME =    592.000    

end timestep


start timestep kper="593" kstp="1" mode="normal"


 OUTPUT CONTROL FOR STRESS PERIOD 593 IS REPEATED USING SETTINGS FROM A PREVIOUS STRESS PERIOD.


 STRESS PERIOD 593 IS TRANSIENT


 REUSING WELS FROM LAST STRESS PERIOD

 REUSING DRNS FROM LAST STRESS PERIOD

 REUSING RCHS FROM LAST STRESS PERIOD


  VOLUME BUDGET FOR ENTIRE MODEL AT END OF TIME STEP    1, STRESS PERIOD 593
  ---------------------------------------------------------------------------------------------------

     CUMULATIVE VOLUME      L**3       RATES FOR THIS TIME STEP      L**3/T          PACKAGE NAME    
     ------------------                 ------------------------                     ----------------

           IN:                                      IN:
           ---                                      ---
              STO-SS =           0.0000                STO-SS =           0.0000     STORAGE         
              STO-SY = 11538148277.1803                STO-SY =    15590049.1456     STORAGE         
                 WEL =           0.0000                   WEL =           0.0000     WEL_0           
                 DRN =           0.0000                   DRN =           0.0000     DRN_0           
                 RCH = 26634525031.8649                   RCH =     4839570.6371     RCH_0           

            TOTAL IN = 38172673309.0452              TOTAL IN =    20429619.7827

          OUT:                                     OUT:
          ----                                     ----
              STO-SS =           0.0000                STO-SS =           0.0000     STORAGE         
              STO-SY =  8558418061.7493                STO-SY =     2079892.4071     STORAGE         
                 WEL =  5996166546.8963                   WEL =     3592777.1524     WEL_0           
                 DRN = 23618080144.1186                   DRN =    14756998.5839     DRN_0           
                 RCH =           0.0000                   RCH =           0.0000     RCH_0           

           TOTAL OUT = 38172664752.7642             TOTAL OUT =    20429668.1435

            IN - OUT =        8556.2810              IN - OUT =         -48.3607

 PERCENT DISCREPANCY =           0.00     PERCENT DISCREPANCY =          -0.00




         TIME SUMMARY AT END OF TIME STEP    1 IN STRESS PERIOD  593
                          TIME STEP LENGTH =    1.00000    
                        STRESS PERIOD TIME =    1.00000    
                     TOTAL SIMULATION TIME =    593.000    

end timestep


start timestep kper="594" kstp="1" mode="normal"


 OUTPUT CONTROL FOR STRESS PERIOD 594 IS REPEATED USING SETTINGS FROM A PREVIOUS STRESS PERIOD.


 STRESS PERIOD 594 IS TRANSIENT


 REUSING WELS FROM LAST STRESS PERIOD

 REUSING DRNS FROM LAST STRESS PERIOD

 REUSING RCHS FROM LAST STRESS PERIOD


  VOLUME BUDGET FOR ENTIRE MODEL AT END OF TIME STEP    1, STRESS PERIOD 594
  ---------------------------------------------------------------------------------------------------

     CUMULATIVE VOLUME      L**3       RATES FOR THIS TIME STEP      L**3/T          PACKAGE NAME    
     ------------------                 ------------------------                     ----------------

           IN:                                      IN:
           ---                                      ---
              STO-SS =           0.0000                STO-SS =           0.0000     STORAGE         
              STO-SY = 11556078969.0432                STO-SY =    17930691.8629     STORAGE         
                 WEL =           0.0000                   WEL =           0.0000     WEL_0           
                 DRN =           0.0000                   DRN =           0.0000     DRN_0           
                 RCH = 26644093572.0059                   RCH =     9568540.1410     RCH_0           

            TOTAL IN = 38200172541.0491              TOTAL IN =    27499232.0039

          OUT:                                     OUT:
          ----                                     ----
              STO-SS =           0.0000                STO-SS =           0.0000     STORAGE         
              STO-SY =  8560607683.6544                STO-SY =     2189621.9051     STORAGE         
                 WEL =  6005036588.5301                   WEL =     8870041.6338     WEL_0           
                 DRN = 23634519711.7229                   DRN =    16439567.6043     DRN_0           
                 RCH =           0.0000                   RCH =           0.0000     RCH_0           

           TOTAL OUT = 38200163983.9074             TOTAL OUT =    27499231.1432

            IN - OUT =        8557.1417              IN - OUT =           0.8607

 PERCENT DISCREPANCY =           0.00     PERCENT DISCREPANCY =           0.00




         TIME SUMMARY AT END OF TIME STEP    1 IN STRESS PERIOD  594
                          TIME STEP LENGTH =    1.00000    
                        STRESS PERIOD TIME =    1.00000    
                     TOTAL SIMULATION TIME =    594.000    

end timestep


start timestep kper="595" kstp="1" mode="normal"


 OUTPUT CONTROL FOR STRESS PERIOD 595 IS REPEATED USING SETTINGS FROM A PREVIOUS STRESS PERIOD.


 STRESS PERIOD 595 IS TRANSIENT


 REUSING WELS FROM LAST STRESS PERIOD

 REUSING DRNS FROM LAST STRESS PERIOD

 REUSING RCHS FROM LAST STRESS PERIOD


  VOLUME BUDGET FOR ENTIRE MODEL AT END OF TIME STEP    1, STRESS PERIOD 595
  ---------------------------------------------------------------------------------------------------

     CUMULATIVE VOLUME      L**3       RATES FOR THIS TIME STEP      L**3/T          PACKAGE NAME    
     ------------------                 ------------------------                     ----------------

           IN:                                      IN:
           ---                                      ---
              STO-SS =           0.0000                STO-SS =           0.0000     STORAGE         
              STO-SY = 11575497615.3320                STO-SY =    19418646.2888     STORAGE         
                 WEL =           0.0000                   WEL =           0.0000     WEL_0           
                 DRN =           0.0000                   DRN =           0.0000     DRN_0           
                 RCH = 26655363765.0076                   RCH =    11270193.0017     RCH_0           

            TOTAL IN = 38230861380.3396              TOTAL IN =    30688839.2905

          OUT:                                     OUT:
          ----                                     ----
              STO-SS =           0.0000                STO-SS =           0.0000     STORAGE         
              STO-SY =  8563919113.6686                STO-SY =     3311430.0142     STORAGE         
                 WEL =  6017233999.4183                   WEL =    12197410.8881     WEL_0           
                 DRN = 23649699726.3552                   DRN =    15180014.6323     DRN_0           
                 RCH =           0.0000                   RCH =           0.0000     RCH_0           

           TOTAL OUT = 38230852839.4420             TOTAL OUT =    30688855.5346

            IN - OUT =        8540.8976              IN - OUT =         -16.2441

 PERCENT DISCREPANCY =           0.00     PERCENT DISCREPANCY =          -0.00




         TIME SUMMARY AT END OF TIME STEP    1 IN STRESS PERIOD  595
                          TIME STEP LENGTH =    1.00000    
                        STRESS PERIOD TIME =    1.00000    
                     TOTAL SIMULATION TIME =    595.000    

end timestep


start timestep kper="596" kstp="1" mode="normal"


 OUTPUT CONTROL FOR STRESS PERIOD 596 IS REPEATED USING SETTINGS FROM A PREVIOUS STRESS PERIOD.


 STRESS PERIOD 596 IS TRANSIENT


 REUSING WELS FROM LAST STRESS PERIOD

 REUSING DRNS FROM LAST STRESS PERIOD

 REUSING RCHS FROM LAST STRESS PERIOD


  VOLUME BUDGET FOR ENTIRE MODEL AT END OF TIME STEP    1, STRESS PERIOD 596
  ---------------------------------------------------------------------------------------------------

     CUMULATIVE VOLUME      L**3       RATES FOR THIS TIME STEP      L**3/T          PACKAGE NAME    
     ------------------                 ------------------------                     ----------------

           IN:                                      IN:
           ---                                      ---
              STO-SS =           0.0000                STO-SS =           0.0000     STORAGE         
              STO-SY = 11617496244.4839                STO-SY =    41998629.1519     STORAGE         
                 WEL =           0.0000                   WEL =           0.0000     WEL_0           
                 DRN =           0.0000                   DRN =           0.0000     DRN_0           
                 RCH = 26680334270.2466                   RCH =    24970505.2389     RCH_0           

            TOTAL IN = 38297830514.7305              TOTAL IN =    66969134.3909

          OUT:                                     OUT:
          ----                                     ----
              STO-SS =           0.0000                STO-SS =           0.0000     STORAGE         
              STO-SY =  8568991726.6378                STO-SY =     5072612.9693     STORAGE         
                 WEL =  6062881018.1048                   WEL =    45647018.6865     WEL_0           
                 DRN = 23665949229.0594                   DRN =    16249502.7042     DRN_0           
                 RCH =           0.0000                   RCH =           0.0000     RCH_0           

           TOTAL OUT = 38297821973.8020             TOTAL OUT =    66969134.3600

            IN - OUT =        8540.9285              IN - OUT =       3.0880E-02

 PERCENT DISCREPANCY =           0.00     PERCENT DISCREPANCY =           0.00




         TIME SUMMARY AT END OF TIME STEP    1 IN STRESS PERIOD  596
                          TIME STEP LENGTH =    1.00000    
                        STRESS PERIOD TIME =    1.00000    
                     TOTAL SIMULATION TIME =    596.000    

end timestep


start timestep kper="597" kstp="1" mode="normal"


 OUTPUT CONTROL FOR STRESS PERIOD 597 IS REPEATED USING SETTINGS FROM A PREVIOUS STRESS PERIOD.


 STRESS PERIOD 597 IS TRANSIENT


 REUSING WELS FROM LAST STRESS PERIOD

 REUSING DRNS FROM LAST STRESS PERIOD

 REUSING RCHS FROM LAST STRESS PERIOD


  VOLUME BUDGET FOR ENTIRE MODEL AT END OF TIME STEP    1, STRESS PERIOD 597
  ---------------------------------------------------------------------------------------------------

     CUMULATIVE VOLUME      L**3       RATES FOR THIS TIME STEP      L**3/T          PACKAGE NAME    
     ------------------                 ------------------------                     ----------------

           IN:                                      IN:
           ---                                      ---
              STO-SS =           0.0000                STO-SS =           0.0000     STORAGE         
              STO-SY = 11652750079.0148                STO-SY =    35253834.5308     STORAGE         
                 WEL =           0.0000                   WEL =           0.0000     WEL_0           
                 DRN =           0.0000                   DRN =           0.0000     DRN_0           
                 RCH = 26702959918.7169                   RCH =    22625648.4704     RCH_0           

            TOTAL IN = 38355709997.7317              TOTAL IN =    57879483.0012

          OUT:                                     OUT:
          ----                                     ----
              STO-SS =           0.0000                STO-SS =           0.0000     STORAGE         
              STO-SY =  8573914379.9058                STO-SY =     4922653.2680     STORAGE         
                 WEL =  6101051656.9398                   WEL =    38170638.8350     WEL_0           
                 DRN = 23680735407.4498                   DRN =    14786178.3904     DRN_0           
                 RCH =           0.0000                   RCH =           0.0000     RCH_0           

           TOTAL OUT = 38355701444.2953             TOTAL OUT =    57879470.4933

            IN - OUT =        8553.4363              IN - OUT =          12.5078

 PERCENT DISCREPANCY =           0.00     PERCENT DISCREPANCY =           0.00




         TIME SUMMARY AT END OF TIME STEP    1 IN STRESS PERIOD  597
                          TIME STEP LENGTH =    1.00000    
                        STRESS PERIOD TIME =    1.00000    
                     TOTAL SIMULATION TIME =    597.000    

end timestep


start timestep kper="598" kstp="1" mode="normal"


 OUTPUT CONTROL FOR STRESS PERIOD 598 IS REPEATED USING SETTINGS FROM A PREVIOUS STRESS PERIOD.


 STRESS PERIOD 598 IS TRANSIENT


 REUSING WELS FROM LAST STRESS PERIOD

 REUSING DRNS FROM LAST STRESS PERIOD

 REUSING RCHS FROM LAST STRESS PERIOD


  VOLUME BUDGET FOR ENTIRE MODEL AT END OF TIME STEP    1, STRESS PERIOD 598
  ---------------------------------------------------------------------------------------------------

     CUMULATIVE VOLUME      L**3       RATES FOR THIS TIME STEP      L**3/T          PACKAGE NAME    
     ------------------                 ------------------------                     ----------------

           IN:                                      IN:
           ---                                      ---
              STO-SS =           0.0000                STO-SS =           0.0000     STORAGE         
              STO-SY = 11667769378.6858                STO-SY =    15019299.6710     STORAGE         
                 WEL =           0.0000                   WEL =           0.0000     WEL_0           
                 DRN =           0.0000                   DRN =           0.0000     DRN_0           
                 RCH = 26710541072.0152                   RCH =     7581153.2983     RCH_0           

            TOTAL IN = 38378310450.7009              TOTAL IN =    22600452.9692

          OUT:                                     OUT:
          ----                                     ----
              STO-SS =           0.0000                STO-SS =           0.0000     STORAGE         
              STO-SY =  8576794445.8062                STO-SY =     2880065.9004     STORAGE         
                 WEL =  6105208157.4108                   WEL =     4156500.4710     WEL_0           
                 DRN = 23696299284.1543                   DRN =    15563876.7045     DRN_0           
                 RCH =           0.0000                   RCH =           0.0000     RCH_0           

           TOTAL OUT = 38378301887.3712             TOTAL OUT =    22600443.0759

            IN - OUT =        8563.3297              IN - OUT =           9.8934

 PERCENT DISCREPANCY =           0.00     PERCENT DISCREPANCY =           0.00




         TIME SUMMARY AT END OF TIME STEP    1 IN STRESS PERIOD  598
                          TIME STEP LENGTH =    1.00000    
                        STRESS PERIOD TIME =    1.00000    
                     TOTAL SIMULATION TIME =    598.000    

end timestep


start timestep kper="599" kstp="1" mode="normal"


 OUTPUT CONTROL FOR STRESS PERIOD 599 IS REPEATED USING SETTINGS FROM A PREVIOUS STRESS PERIOD.


 STRESS PERIOD 599 IS TRANSIENT


 REUSING WELS FROM LAST STRESS PERIOD

 REUSING DRNS FROM LAST STRESS PERIOD

 REUSING RCHS FROM LAST STRESS PERIOD


  VOLUME BUDGET FOR ENTIRE MODEL AT END OF TIME STEP    1, STRESS PERIOD 599
  ---------------------------------------------------------------------------------------------------

     CUMULATIVE VOLUME      L**3       RATES FOR THIS TIME STEP      L**3/T          PACKAGE NAME    
     ------------------                 ------------------------                     ----------------

           IN:                                      IN:
           ---                                      ---
              STO-SS =           0.0000                STO-SS =           0.0000     STORAGE         
              STO-SY = 11683141166.7260                STO-SY =    15371788.0402     STORAGE         
                 WEL =           0.0000                   WEL =           0.0000     WEL_0           
                 DRN =           0.0000                   DRN =           0.0000     DRN_0           
                 RCH = 26717765565.0264                   RCH =     7224493.0112     RCH_0           

            TOTAL IN = 38400906731.7523              TOTAL IN =    22596281.0514

          OUT:                                     OUT:
          ----                                     ----
              STO-SS =           0.0000                STO-SS =           0.0000     STORAGE         
              STO-SY =  8579569346.3351                STO-SY =     2774900.5290     STORAGE         
                 WEL =  6111007311.1587                   WEL =     5799153.7479     WEL_0           
                 DRN = 23710321510.5023                   DRN =    14022226.3480     DRN_0           
                 RCH =           0.0000                   RCH =           0.0000     RCH_0           

           TOTAL OUT = 38400898167.9961             TOTAL OUT =    22596280.6249

            IN - OUT =        8563.7562              IN - OUT =           0.4265

 PERCENT DISCREPANCY =           0.00     PERCENT DISCREPANCY =           0.00




         TIME SUMMARY AT END OF TIME STEP    1 IN STRESS PERIOD  599
                          TIME STEP LENGTH =    1.00000    
                        STRESS PERIOD TIME =    1.00000    
                     TOTAL SIMULATION TIME =    599.000    

end timestep


start timestep kper="600" kstp="1" mode="normal"


 OUTPUT CONTROL FOR STRESS PERIOD 600 IS REPEATED USING SETTINGS FROM A PREVIOUS STRESS PERIOD.


 STRESS PERIOD 600 IS TRANSIENT


 REUSING WELS FROM LAST STRESS PERIOD

 REUSING DRNS FROM LAST STRESS PERIOD

 REUSING RCHS FROM LAST STRESS PERIOD


  VOLUME BUDGET FOR ENTIRE MODEL AT END OF TIME STEP    1, STRESS PERIOD 600
  ---------------------------------------------------------------------------------------------------

     CUMULATIVE VOLUME      L**3       RATES FOR THIS TIME STEP      L**3/T          PACKAGE NAME    
     ------------------                 ------------------------                     ----------------

           IN:                                      IN:
           ---                                      ---
              STO-SS =           0.0000                STO-SS =           0.0000     STORAGE         
              STO-SY = 11697554877.3958                STO-SY =    14413710.6699     STORAGE         
                 WEL =           0.0000                   WEL =           0.0000     WEL_0           
                 DRN =           0.0000                   DRN =           0.0000     DRN_0           
                 RCH = 26725199419.0721                   RCH =     7433854.0457     RCH_0           

            TOTAL IN = 38422754296.4679              TOTAL IN =    21847564.7156

          OUT:                                     OUT:
          ----                                     ----
              STO-SS =           0.0000                STO-SS =           0.0000     STORAGE         
              STO-SY =  8582012350.0936                STO-SY =     2443003.7585     STORAGE         
                 WEL =  6114863861.5307                   WEL =     3856550.3720     WEL_0           
                 DRN = 23725869521.4725                   DRN =    15548010.9702     DRN_0           
                 RCH =           0.0000                   RCH =           0.0000     RCH_0           

           TOTAL OUT = 38422745733.0969             TOTAL OUT =    21847565.1008

            IN - OUT =        8563.3710              IN - OUT =          -0.3852

 PERCENT DISCREPANCY =           0.00     PERCENT DISCREPANCY =          -0.00




         TIME SUMMARY AT END OF TIME STEP    1 IN STRESS PERIOD  600
                          TIME STEP LENGTH =    1.00000    
                        STRESS PERIOD TIME =    1.00000    
                     TOTAL SIMULATION TIME =    600.000    

end timestep


start timestep kper="601" kstp="1" mode="normal"


 OUTPUT CONTROL FOR STRESS PERIOD 601 IS REPEATED USING SETTINGS FROM A PREVIOUS STRESS PERIOD.


 STRESS PERIOD 601 IS TRANSIENT


 REUSING WELS FROM LAST STRESS PERIOD

 REUSING DRNS FROM LAST STRESS PERIOD

 REUSING RCHS FROM LAST STRESS PERIOD


  VOLUME BUDGET FOR ENTIRE MODEL AT END OF TIME STEP    1, STRESS PERIOD 601
  ---------------------------------------------------------------------------------------------------

     CUMULATIVE VOLUME      L**3       RATES FOR THIS TIME STEP      L**3/T          PACKAGE NAME    
     ------------------                 ------------------------                     ----------------

           IN:                                      IN:
           ---                                      ---
              STO-SS =           0.0000                STO-SS =           0.0000     STORAGE         
              STO-SY = 11713494895.3057                STO-SY =    15940017.9099     STORAGE         
                 WEL =           0.0000                   WEL =           0.0000     WEL_0           
                 DRN =           0.0000                   DRN =           0.0000     DRN_0           
                 RCH = 26732191874.0093                   RCH =     6992454.9372     RCH_0           

            TOTAL IN = 38445686769.3150              TOTAL IN =    22932472.8470

          OUT:                                     OUT:
          ----                                     ----
              STO-SS =           0.0000                STO-SS =           0.0000     STORAGE         
              STO-SY =  8584332571.4939                STO-SY =     2320221.4003     STORAGE         
                 WEL =  6121569978.1769                   WEL =     6706116.6462     WEL_0           
                 DRN = 23739775667.0167                   DRN =    13906145.5442     DRN_0           
                 RCH =           0.0000                   RCH =           0.0000     RCH_0           

           TOTAL OUT = 38445678216.6875             TOTAL OUT =    22932483.5906

            IN - OUT =        8552.6274              IN - OUT =         -10.7436

 PERCENT DISCREPANCY =           0.00     PERCENT DISCREPANCY =          -0.00




         TIME SUMMARY AT END OF TIME STEP    1 IN STRESS PERIOD  601
                          TIME STEP LENGTH =    1.00000    
                        STRESS PERIOD TIME =    1.00000    
                     TOTAL SIMULATION TIME =    601.000    

end timestep


start timestep kper="602" kstp="1" mode="normal"


 OUTPUT CONTROL FOR STRESS PERIOD 602 IS REPEATED USING SETTINGS FROM A PREVIOUS STRESS PERIOD.


 STRESS PERIOD 602 IS TRANSIENT


 REUSING WELS FROM LAST STRESS PERIOD

 REUSING DRNS FROM LAST STRESS PERIOD

 REUSING RCHS FROM LAST STRESS PERIOD


  VOLUME BUDGET FOR ENTIRE MODEL AT END OF TIME STEP    1, STRESS PERIOD 602
  ---------------------------------------------------------------------------------------------------

     CUMULATIVE VOLUME      L**3       RATES FOR THIS TIME STEP      L**3/T          PACKAGE NAME    
     ------------------                 ------------------------                     ----------------

           IN:                                      IN:
           ---                                      ---
              STO-SS =           0.0000                STO-SS =           0.0000     STORAGE         
              STO-SY = 11744157080.1743                STO-SY =    30662184.8686     STORAGE         
                 WEL =           0.0000                   WEL =           0.0000     WEL_0           
                 DRN =           0.0000                   DRN =           0.0000     DRN_0           
                 RCH = 26753523663.2446                   RCH =    21331789.2353     RCH_0           

            TOTAL IN = 38497680743.4189              TOTAL IN =    51993974.1039

          OUT:                                     OUT:
          ----                                     ----
              STO-SS =           0.0000                STO-SS =           0.0000     STORAGE         
              STO-SY =  8589005716.3397                STO-SY =     4673144.8458     STORAGE         
                 WEL =  6153391370.4858                   WEL =    31821392.3089     WEL_0           
                 DRN = 23755275104.4197                   DRN =    15499437.4029     DRN_0           
                 RCH =           0.0000                   RCH =           0.0000     RCH_0           

           TOTAL OUT = 38497672191.2452             TOTAL OUT =    51993974.5576

            IN - OUT =        8552.1737              IN - OUT =          -0.4538

 PERCENT DISCREPANCY =           0.00     PERCENT DISCREPANCY =          -0.00




         TIME SUMMARY AT END OF TIME STEP    1 IN STRESS PERIOD  602
                          TIME STEP LENGTH =    1.00000    
                        STRESS PERIOD TIME =    1.00000    
                     TOTAL SIMULATION TIME =    602.000    

end timestep


start timestep kper="603" kstp="1" mode="normal"


 OUTPUT CONTROL FOR STRESS PERIOD 603 IS REPEATED USING SETTINGS FROM A PREVIOUS STRESS PERIOD.


 STRESS PERIOD 603 IS TRANSIENT


 REUSING WELS FROM LAST STRESS PERIOD

 REUSING DRNS FROM LAST STRESS PERIOD

 REUSING RCHS FROM LAST STRESS PERIOD


  VOLUME BUDGET FOR ENTIRE MODEL AT END OF TIME STEP    1, STRESS PERIOD 603
  ---------------------------------------------------------------------------------------------------

     CUMULATIVE VOLUME      L**3       RATES FOR THIS TIME STEP      L**3/T          PACKAGE NAME    
     ------------------                 ------------------------                     ----------------

           IN:                                      IN:
           ---                                      ---
              STO-SS =           0.0000                STO-SS =           0.0000     STORAGE         
              STO-SY = 11764992289.4690                STO-SY =    20835209.2947     STORAGE         
                 WEL =           0.0000                   WEL =           0.0000     WEL_0           
                 DRN =           0.0000                   DRN =           0.0000     DRN_0           
                 RCH = 26766688232.5763                   RCH =    13164569.3317     RCH_0           

            TOTAL IN = 38531680522.0453              TOTAL IN =    33999778.6264

          OUT:                                     OUT:
          ----                                     ----
              STO-SS =           0.0000                STO-SS =           0.0000     STORAGE         
              STO-SY =  8592396778.7654                STO-SY =     3391062.4256     STORAGE         
                 WEL =  6169864539.5415                   WEL =    16473169.0558     WEL_0           
                 DRN = 23769410629.6183                   DRN =    14135525.1986     DRN_0           
                 RCH =           0.0000                   RCH =           0.0000     RCH_0           

           TOTAL OUT = 38531671947.9252             TOTAL OUT =    33999756.6800

            IN - OUT =        8574.1201              IN - OUT =          21.9464

 PERCENT DISCREPANCY =           0.00     PERCENT DISCREPANCY =           0.00




         TIME SUMMARY AT END OF TIME STEP    1 IN STRESS PERIOD  603
                          TIME STEP LENGTH =    1.00000    
                        STRESS PERIOD TIME =    1.00000    
                     TOTAL SIMULATION TIME =    603.000    

end timestep


start timestep kper="604" kstp="1" mode="normal"


 OUTPUT CONTROL FOR STRESS PERIOD 604 IS REPEATED USING SETTINGS FROM A PREVIOUS STRESS PERIOD.


 STRESS PERIOD 604 IS TRANSIENT


 REUSING WELS FROM LAST STRESS PERIOD

 REUSING DRNS FROM LAST STRESS PERIOD

 REUSING RCHS FROM LAST STRESS PERIOD


  VOLUME BUDGET FOR ENTIRE MODEL AT END OF TIME STEP    1, STRESS PERIOD 604
  ---------------------------------------------------------------------------------------------------

     CUMULATIVE VOLUME      L**3       RATES FOR THIS TIME STEP      L**3/T          PACKAGE NAME    
     ------------------                 ------------------------                     ----------------

           IN:                                      IN:
           ---                                      ---
              STO-SS =           0.0000                STO-SS =           0.0000     STORAGE         
              STO-SY = 11786211150.3526                STO-SY =    21218860.8836     STORAGE         
                 WEL =           0.0000                   WEL =           0.0000     WEL_0           
                 DRN =           0.0000                   DRN =           0.0000     DRN_0           
                 RCH = 26782150042.1481                   RCH =    15461809.5718     RCH_0           

            TOTAL IN = 38568361192.5007              TOTAL IN =    36680670.4555

          OUT:                                     OUT:
          ----                                     ----
              STO-SS =           0.0000                STO-SS =           0.0000     STORAGE         
              STO-SY =  8596003500.4830                STO-SY =     3606721.7176     STORAGE         
                 WEL =  6187359329.1312                   WEL =    17494789.5897     WEL_0           
                 DRN = 23784989771.0359                   DRN =    15579141.4176     DRN_0           
                 RCH =           0.0000                   RCH =           0.0000     RCH_0           

           TOTAL OUT = 38568352600.6501             TOTAL OUT =    36680652.7249

            IN - OUT =        8591.8506              IN - OUT =          17.7306

 PERCENT DISCREPANCY =           0.00     PERCENT DISCREPANCY =           0.00




         TIME SUMMARY AT END OF TIME STEP    1 IN STRESS PERIOD  604
                          TIME STEP LENGTH =    1.00000    
                        STRESS PERIOD TIME =    1.00000    
                     TOTAL SIMULATION TIME =    604.000    

end timestep


start timestep kper="605" kstp="1" mode="normal"


 OUTPUT CONTROL FOR STRESS PERIOD 605 IS REPEATED USING SETTINGS FROM A PREVIOUS STRESS PERIOD.


 STRESS PERIOD 605 IS TRANSIENT


 REUSING WELS FROM LAST STRESS PERIOD

 REUSING DRNS FROM LAST STRESS PERIOD

 REUSING RCHS FROM LAST STRESS PERIOD


  VOLUME BUDGET FOR ENTIRE MODEL AT END OF TIME STEP    1, STRESS PERIOD 605
  ---------------------------------------------------------------------------------------------------

     CUMULATIVE VOLUME      L**3       RATES FOR THIS TIME STEP      L**3/T          PACKAGE NAME    
     ------------------                 ------------------------                     ----------------

           IN:                                      IN:
           ---                                      ---
              STO-SS =           0.0000                STO-SS =           0.0000     STORAGE         
              STO-SY = 11804853817.2810                STO-SY =    18642666.9283     STORAGE         
                 WEL =           0.0000                   WEL =           0.0000     WEL_0           
                 DRN =           0.0000                   DRN =           0.0000     DRN_0           
                 RCH = 26792345506.1205                   RCH =    10195463.9724     RCH_0           

            TOTAL IN = 38597199323.4014              TOTAL IN =    28838130.9007

          OUT:                                     OUT:
          ----                                     ----
              STO-SS =           0.0000                STO-SS =           0.0000     STORAGE         
              STO-SY =  8598940244.6745                STO-SY =     2936744.1915     STORAGE         
                 WEL =  6199814112.5188                   WEL =    12454783.3876     WEL_0           
                 DRN = 23798436377.5980                   DRN =    13446606.5621     DRN_0           
                 RCH =           0.0000                   RCH =           0.0000     RCH_0           

           TOTAL OUT = 38597190734.7913             TOTAL OUT =    28838134.1412

            IN - OUT =        8588.6101              IN - OUT =          -3.2405

 PERCENT DISCREPANCY =           0.00     PERCENT DISCREPANCY =          -0.00




         TIME SUMMARY AT END OF TIME STEP    1 IN STRESS PERIOD  605
                          TIME STEP LENGTH =    1.00000    
                        STRESS PERIOD TIME =    1.00000    
                     TOTAL SIMULATION TIME =    605.000    

end timestep


start timestep kper="606" kstp="1" mode="normal"


 OUTPUT CONTROL FOR STRESS PERIOD 606 IS REPEATED USING SETTINGS FROM A PREVIOUS STRESS PERIOD.


 STRESS PERIOD 606 IS TRANSIENT


 REUSING WELS FROM LAST STRESS PERIOD

 REUSING DRNS FROM LAST STRESS PERIOD

 REUSING RCHS FROM LAST STRESS PERIOD


  VOLUME BUDGET FOR ENTIRE MODEL AT END OF TIME STEP    1, STRESS PERIOD 606
  ---------------------------------------------------------------------------------------------------

     CUMULATIVE VOLUME      L**3       RATES FOR THIS TIME STEP      L**3/T          PACKAGE NAME    
     ------------------                 ------------------------                     ----------------

           IN:                                      IN:
           ---                                      ---
              STO-SS =           0.0000                STO-SS =           0.0000     STORAGE         
              STO-SY = 11824362370.9536                STO-SY =    19508553.6726     STORAGE         
                 WEL =           0.0000                   WEL =           0.0000     WEL_0           
                 DRN =           0.0000                   DRN =           0.0000     DRN_0           
                 RCH = 26806789013.0946                   RCH =    14443506.9741     RCH_0           

            TOTAL IN = 38631151384.0481              TOTAL IN =    33952060.6467

          OUT:                                     OUT:
          ----                                     ----
              STO-SS =           0.0000                STO-SS =           0.0000     STORAGE         
              STO-SY =  8602647866.5812                STO-SY =     3707621.9067     STORAGE         
                 WEL =  6214387077.4830                   WEL =    14572964.9641     WEL_0           
                 DRN = 23814107856.3416                   DRN =    15671478.7436     DRN_0           
                 RCH =           0.0000                   RCH =           0.0000     RCH_0           

           TOTAL OUT = 38631142800.4057             TOTAL OUT =    33952065.6144

            IN - OUT =        8583.6424              IN - OUT =          -4.9677

 PERCENT DISCREPANCY =           0.00     PERCENT DISCREPANCY =          -0.00




         TIME SUMMARY AT END OF TIME STEP    1 IN STRESS PERIOD  606
                          TIME STEP LENGTH =    1.00000    
                        STRESS PERIOD TIME =    1.00000    
                     TOTAL SIMULATION TIME =    606.000    

end timestep


start timestep kper="607" kstp="1" mode="normal"


 OUTPUT CONTROL FOR STRESS PERIOD 607 IS REPEATED USING SETTINGS FROM A PREVIOUS STRESS PERIOD.


 STRESS PERIOD 607 IS TRANSIENT


 REUSING WELS FROM LAST STRESS PERIOD

 REUSING DRNS FROM LAST STRESS PERIOD

 REUSING RCHS FROM LAST STRESS PERIOD


  VOLUME BUDGET FOR ENTIRE MODEL AT END OF TIME STEP    1, STRESS PERIOD 607
  ---------------------------------------------------------------------------------------------------

     CUMULATIVE VOLUME      L**3       RATES FOR THIS TIME STEP      L**3/T          PACKAGE NAME    
     ------------------                 ------------------------                     ----------------

           IN:                                      IN:
           ---                                      ---
              STO-SS =           0.0000                STO-SS =           0.0000     STORAGE         
              STO-SY = 11839412370.4946                STO-SY =    15049999.5410     STORAGE         
                 WEL =           0.0000                   WEL =           0.0000     WEL_0           
                 DRN =           0.0000                   DRN =           0.0000     DRN_0           
                 RCH = 26811811194.1371                   RCH =     5022181.0425     RCH_0           

            TOTAL IN = 38651223564.6316              TOTAL IN =    20072180.5835

          OUT:                                     OUT:
          ----                                     ----
              STO-SS =           0.0000                STO-SS =           0.0000     STORAGE         
              STO-SY =  8605031345.7780                STO-SY =     2383479.1968     STORAGE         
                 WEL =  6218829124.4183                   WEL =     4442046.9354     WEL_0           
                 DRN = 23827354541.9192                   DRN =    13246685.5776     DRN_0           
                 RCH =           0.0000                   RCH =           0.0000     RCH_0           

           TOTAL OUT = 38651215012.1155             TOTAL OUT =    20072211.7098

            IN - OUT =        8552.5161              IN - OUT =         -31.1263

 PERCENT DISCREPANCY =           0.00     PERCENT DISCREPANCY =          -0.00




         TIME SUMMARY AT END OF TIME STEP    1 IN STRESS PERIOD  607
                          TIME STEP LENGTH =    1.00000    
                        STRESS PERIOD TIME =    1.00000    
                     TOTAL SIMULATION TIME =    607.000    

end timestep


start timestep kper="608" kstp="1" mode="normal"


 OUTPUT CONTROL FOR STRESS PERIOD 608 IS REPEATED USING SETTINGS FROM A PREVIOUS STRESS PERIOD.


 STRESS PERIOD 608 IS TRANSIENT


 REUSING WELS FROM LAST STRESS PERIOD

 REUSING DRNS FROM LAST STRESS PERIOD

 REUSING RCHS FROM LAST STRESS PERIOD


  VOLUME BUDGET FOR ENTIRE MODEL AT END OF TIME STEP    1, STRESS PERIOD 608
  ---------------------------------------------------------------------------------------------------

     CUMULATIVE VOLUME      L**3       RATES FOR THIS TIME STEP      L**3/T          PACKAGE NAME    
     ------------------                 ------------------------                     ----------------

           IN:                                      IN:
           ---                                      ---
              STO-SS =           0.0000                STO-SS =           0.0000     STORAGE         
              STO-SY = 11873714625.2730                STO-SY =    34302254.7785     STORAGE         
                 WEL =           0.0000                   WEL =           0.0000     WEL_0           
                 DRN =           0.0000                   DRN =           0.0000     DRN_0           
                 RCH = 26831664791.6836                   RCH =    19853597.5465     RCH_0           

            TOTAL IN = 38705379416.9566              TOTAL IN =    54155852.3249

          OUT:                                     OUT:
          ----                                     ----
              STO-SS =           0.0000                STO-SS =           0.0000     STORAGE         
              STO-SY =  8608346286.7702                STO-SY =     3314940.9922     STORAGE         
                 WEL =  6254997781.7946                   WEL =    36168657.3762     WEL_0           
                 DRN = 23842026758.9074                   DRN =    14672216.9882     DRN_0           
                 RCH =           0.0000                   RCH =           0.0000     RCH_0           

           TOTAL OUT = 38705370827.4721             TOTAL OUT =    54155815.3566

            IN - OUT =        8589.4844              IN - OUT =          36.9683

 PERCENT DISCREPANCY =           0.00     PERCENT DISCREPANCY =           0.00




         TIME SUMMARY AT END OF TIME STEP    1 IN STRESS PERIOD  608
                          TIME STEP LENGTH =    1.00000    
                        STRESS PERIOD TIME =    1.00000    
                     TOTAL SIMULATION TIME =    608.000    

end timestep


start timestep kper="609" kstp="1" mode="normal"


 OUTPUT CONTROL FOR STRESS PERIOD 609 IS REPEATED USING SETTINGS FROM A PREVIOUS STRESS PERIOD.


 STRESS PERIOD 609 IS TRANSIENT


 REUSING WELS FROM LAST STRESS PERIOD

 REUSING DRNS FROM LAST STRESS PERIOD

 REUSING RCHS FROM LAST STRESS PERIOD


  VOLUME BUDGET FOR ENTIRE MODEL AT END OF TIME STEP    1, STRESS PERIOD 609
  ---------------------------------------------------------------------------------------------------

     CUMULATIVE VOLUME      L**3       RATES FOR THIS TIME STEP      L**3/T          PACKAGE NAME    
     ------------------                 ------------------------                     ----------------

           IN:                                      IN:
           ---                                      ---
              STO-SS =           0.0000                STO-SS =           0.0000     STORAGE         
              STO-SY = 11889227524.5253                STO-SY =    15512899.2523     STORAGE         
                 WEL =           0.0000                   WEL =           0.0000     WEL_0           
                 DRN =           0.0000                   DRN =           0.0000     DRN_0           
                 RCH = 26837581571.2884                   RCH =     5916779.6048     RCH_0           

            TOTAL IN = 38726809095.8137              TOTAL IN =    21429678.8571

          OUT:                                     OUT:
          ----                                     ----
              STO-SS =           0.0000                STO-SS =           0.0000     STORAGE         
              STO-SY =  8611173279.7156                STO-SY =     2826992.9454     STORAGE         
                 WEL =  6260607205.2830                   WEL =     5609423.4884     WEL_0           
                 DRN = 23855020023.0129                   DRN =    12993264.1055     DRN_0           
                 RCH =           0.0000                   RCH =           0.0000     RCH_0           

           TOTAL OUT = 38726800508.0115             TOTAL OUT =    21429680.5394

            IN - OUT =        8587.8021              IN - OUT =          -1.6823

 PERCENT DISCREPANCY =           0.00     PERCENT DISCREPANCY =          -0.00




         TIME SUMMARY AT END OF TIME STEP    1 IN STRESS PERIOD  609
                          TIME STEP LENGTH =    1.00000    
                        STRESS PERIOD TIME =    1.00000    
                     TOTAL SIMULATION TIME =    609.000    

end timestep


start timestep kper="610" kstp="1" mode="normal"


 OUTPUT CONTROL FOR STRESS PERIOD 610 IS REPEATED USING SETTINGS FROM A PREVIOUS STRESS PERIOD.


 STRESS PERIOD 610 IS TRANSIENT


 REUSING WELS FROM LAST STRESS PERIOD

 REUSING DRNS FROM LAST STRESS PERIOD

 REUSING RCHS FROM LAST STRESS PERIOD


  VOLUME BUDGET FOR ENTIRE MODEL AT END OF TIME STEP    1, STRESS PERIOD 610
  ---------------------------------------------------------------------------------------------------

     CUMULATIVE VOLUME      L**3       RATES FOR THIS TIME STEP      L**3/T          PACKAGE NAME    
     ------------------                 ------------------------                     ----------------

           IN:                                      IN:
           ---                                      ---
              STO-SS =           0.0000                STO-SS =           0.0000     STORAGE         
              STO-SY = 11911760449.5872                STO-SY =    22532925.0619     STORAGE         
                 WEL =           0.0000                   WEL =           0.0000     WEL_0           
                 DRN =           0.0000                   DRN =           0.0000     DRN_0           
                 RCH = 26852579891.6710                   RCH =    14998320.3826     RCH_0           

            TOTAL IN = 38764340341.2582              TOTAL IN =    37531245.4445

          OUT:                                     OUT:
          ----                                     ----
              STO-SS =           0.0000                STO-SS =           0.0000     STORAGE         
              STO-SY =  8614033312.4398                STO-SY =     2860032.7242     STORAGE         
                 WEL =  6280469372.6495                   WEL =    19862167.3665     WEL_0           
                 DRN = 23869829068.3527                   DRN =    14809045.3398     DRN_0           
                 RCH =           0.0000                   RCH =           0.0000     RCH_0           

           TOTAL OUT = 38764331753.4421             TOTAL OUT =    37531245.4305

            IN - OUT =        8587.8161              IN - OUT =       1.4007E-02

 PERCENT DISCREPANCY =           0.00     PERCENT DISCREPANCY =           0.00




         TIME SUMMARY AT END OF TIME STEP    1 IN STRESS PERIOD  610
                          TIME STEP LENGTH =    1.00000    
                        STRESS PERIOD TIME =    1.00000    
                     TOTAL SIMULATION TIME =    610.000    

end timestep


start timestep kper="611" kstp="1" mode="normal"


 OUTPUT CONTROL FOR STRESS PERIOD 611 IS REPEATED USING SETTINGS FROM A PREVIOUS STRESS PERIOD.


 STRESS PERIOD 611 IS TRANSIENT


 REUSING WELS FROM LAST STRESS PERIOD

 REUSING DRNS FROM LAST STRESS PERIOD

 REUSING RCHS FROM LAST STRESS PERIOD


  VOLUME BUDGET FOR ENTIRE MODEL AT END OF TIME STEP    1, STRESS PERIOD 611
  ---------------------------------------------------------------------------------------------------

     CUMULATIVE VOLUME      L**3       RATES FOR THIS TIME STEP      L**3/T          PACKAGE NAME    
     ------------------                 ------------------------                     ----------------

           IN:                                      IN:
           ---                                      ---
              STO-SS =           0.0000                STO-SS =           0.0000     STORAGE         
              STO-SY = 11933969128.3293                STO-SY =    22208678.7421     STORAGE         
                 WEL =           0.0000                   WEL =           0.0000     WEL_0           
                 DRN =           0.0000                   DRN =           0.0000     DRN_0           
                 RCH = 26866654675.6520                   RCH =    14074783.9810     RCH_0           

            TOTAL IN = 38800623803.9813              TOTAL IN =    36283462.7231

          OUT:                                     OUT:
          ----                                     ----
              STO-SS =           0.0000                STO-SS =           0.0000     STORAGE         
              STO-SY =  8618158072.1878                STO-SY =     4124759.7480     STORAGE         
                 WEL =  6299972049.7600                   WEL =    19502677.1105     WEL_0           
                 DRN = 23882485095.7332                   DRN =    12656027.3805     DRN_0           
                 RCH =           0.0000                   RCH =           0.0000     RCH_0           

           TOTAL OUT = 38800615217.6810             TOTAL OUT =    36283464.2389

            IN - OUT =        8586.3003              IN - OUT =          -1.5158

 PERCENT DISCREPANCY =           0.00     PERCENT DISCREPANCY =          -0.00




         TIME SUMMARY AT END OF TIME STEP    1 IN STRESS PERIOD  611
                          TIME STEP LENGTH =    1.00000    
                        STRESS PERIOD TIME =    1.00000    
                     TOTAL SIMULATION TIME =    611.000    

end timestep


start timestep kper="612" kstp="1" mode="normal"


 OUTPUT CONTROL FOR STRESS PERIOD 612 IS REPEATED USING SETTINGS FROM A PREVIOUS STRESS PERIOD.


 STRESS PERIOD 612 IS TRANSIENT


 REUSING WELS FROM LAST STRESS PERIOD

 REUSING DRNS FROM LAST STRESS PERIOD

 REUSING RCHS FROM LAST STRESS PERIOD


  VOLUME BUDGET FOR ENTIRE MODEL AT END OF TIME STEP    1, STRESS PERIOD 612
  ---------------------------------------------------------------------------------------------------

     CUMULATIVE VOLUME      L**3       RATES FOR THIS TIME STEP      L**3/T          PACKAGE NAME    
     ------------------                 ------------------------                     ----------------

           IN:                                      IN:
           ---                                      ---
              STO-SS =           0.0000                STO-SS =           0.0000     STORAGE         
              STO-SY = 11960634388.6482                STO-SY =    26665260.3189     STORAGE         
                 WEL =           0.0000                   WEL =           0.0000     WEL_0           
                 DRN =           0.0000                   DRN =           0.0000     DRN_0           
                 RCH = 26885613713.8273                   RCH =    18959038.1753     RCH_0           

            TOTAL IN = 38846248102.4755              TOTAL IN =    45624298.4942

          OUT:                                     OUT:
          ----                                     ----
              STO-SS =           0.0000                STO-SS =           0.0000     STORAGE         
              STO-SY =  8622280300.0796                STO-SY =     4122227.8918     STORAGE         
                 WEL =  6326795115.6714                   WEL =    26823065.9114     WEL_0           
                 DRN = 23897164026.0115                   DRN =    14678930.2783     DRN_0           
                 RCH =           0.0000                   RCH =           0.0000     RCH_0           

           TOTAL OUT = 38846239441.7625             TOTAL OUT =    45624224.0815

            IN - OUT =        8660.7130              IN - OUT =          74.4127

 PERCENT DISCREPANCY =           0.00     PERCENT DISCREPANCY =           0.00




         TIME SUMMARY AT END OF TIME STEP    1 IN STRESS PERIOD  612
                          TIME STEP LENGTH =    1.00000    
                        STRESS PERIOD TIME =    1.00000    
                     TOTAL SIMULATION TIME =    612.000    

end timestep


start timestep kper="613" kstp="1" mode="normal"


 OUTPUT CONTROL FOR STRESS PERIOD 613 IS REPEATED USING SETTINGS FROM A PREVIOUS STRESS PERIOD.


 STRESS PERIOD 613 IS TRANSIENT


 REUSING WELS FROM LAST STRESS PERIOD

 REUSING DRNS FROM LAST STRESS PERIOD

 REUSING RCHS FROM LAST STRESS PERIOD


  VOLUME BUDGET FOR ENTIRE MODEL AT END OF TIME STEP    1, STRESS PERIOD 613
  ---------------------------------------------------------------------------------------------------

     CUMULATIVE VOLUME      L**3       RATES FOR THIS TIME STEP      L**3/T          PACKAGE NAME    
     ------------------                 ------------------------                     ----------------

           IN:                                      IN:
           ---                                      ---
              STO-SS =           0.0000                STO-SS =           0.0000     STORAGE         
              STO-SY = 11977303629.1623                STO-SY =    16669240.5142     STORAGE         
                 WEL =           0.0000                   WEL =           0.0000     WEL_0           
                 DRN =           0.0000                   DRN =           0.0000     DRN_0           
                 RCH = 26894760790.8747                   RCH =     9147077.0474     RCH_0           

            TOTAL IN = 38872064420.0371              TOTAL IN =    25816317.5616

          OUT:                                     OUT:
          ----                                     ----
              STO-SS =           0.0000                STO-SS =           0.0000     STORAGE         
              STO-SY =  8625090549.6069                STO-SY =     2810249.5273     STORAGE         
                 WEL =  6337337279.9815                   WEL =    10542164.3101     WEL_0           
                 DRN = 23909627931.2071                   DRN =    12463905.1956     DRN_0           
                 RCH =           0.0000                   RCH =           0.0000     RCH_0           

           TOTAL OUT = 38872055760.7955             TOTAL OUT =    25816319.0330

            IN - OUT =        8659.2416              IN - OUT =          -1.4714

 PERCENT DISCREPANCY =           0.00     PERCENT DISCREPANCY =          -0.00




         TIME SUMMARY AT END OF TIME STEP    1 IN STRESS PERIOD  613
                          TIME STEP LENGTH =    1.00000    
                        STRESS PERIOD TIME =    1.00000    
                     TOTAL SIMULATION TIME =    613.000    

end timestep


start timestep kper="614" kstp="1" mode="normal"


 OUTPUT CONTROL FOR STRESS PERIOD 614 IS REPEATED USING SETTINGS FROM A PREVIOUS STRESS PERIOD.


 STRESS PERIOD 614 IS TRANSIENT


 REUSING WELS FROM LAST STRESS PERIOD

 REUSING DRNS FROM LAST STRESS PERIOD

 REUSING RCHS FROM LAST STRESS PERIOD


  VOLUME BUDGET FOR ENTIRE MODEL AT END OF TIME STEP    1, STRESS PERIOD 614
  ---------------------------------------------------------------------------------------------------

     CUMULATIVE VOLUME      L**3       RATES FOR THIS TIME STEP      L**3/T          PACKAGE NAME    
     ------------------                 ------------------------                     ----------------

           IN:                                      IN:
           ---                                      ---
              STO-SS =           0.0000                STO-SS =           0.0000     STORAGE         
              STO-SY = 12012898979.3981                STO-SY =    35595350.2358     STORAGE         
                 WEL =           0.0000                   WEL =           0.0000     WEL_0           
                 DRN =           0.0000                   DRN =           0.0000     DRN_0           
                 RCH = 26916834913.2877                   RCH =    22074122.4129     RCH_0           

            TOTAL IN = 38929733892.6858              TOTAL IN =    57669472.6488

          OUT:                                     OUT:
          ----                                     ----
              STO-SS =           0.0000                STO-SS =           0.0000     STORAGE         
              STO-SY =  8628583974.4225                STO-SY =     3493424.8157     STORAGE         
                 WEL =  6377558857.8939                   WEL =    40221577.9124     WEL_0           
                 DRN = 23923582396.8372                   DRN =    13954465.6301     DRN_0           
                 RCH =           0.0000                   RCH =           0.0000     RCH_0           

           TOTAL OUT = 38929725229.1536             TOTAL OUT =    57669468.3582

            IN - OUT =        8663.5322              IN - OUT =           4.2906

 PERCENT DISCREPANCY =           0.00     PERCENT DISCREPANCY =           0.00




         TIME SUMMARY AT END OF TIME STEP    1 IN STRESS PERIOD  614
                          TIME STEP LENGTH =    1.00000    
                        STRESS PERIOD TIME =    1.00000    
                     TOTAL SIMULATION TIME =    614.000    

end timestep


start timestep kper="615" kstp="1" mode="normal"


 OUTPUT CONTROL FOR STRESS PERIOD 615 IS REPEATED USING SETTINGS FROM A PREVIOUS STRESS PERIOD.


 STRESS PERIOD 615 IS TRANSIENT


 REUSING WELS FROM LAST STRESS PERIOD

 REUSING DRNS FROM LAST STRESS PERIOD

 REUSING RCHS FROM LAST STRESS PERIOD


  VOLUME BUDGET FOR ENTIRE MODEL AT END OF TIME STEP    1, STRESS PERIOD 615
  ---------------------------------------------------------------------------------------------------

     CUMULATIVE VOLUME      L**3       RATES FOR THIS TIME STEP      L**3/T          PACKAGE NAME    
     ------------------                 ------------------------                     ----------------

           IN:                                      IN:
           ---                                      ---
              STO-SS =           0.0000                STO-SS =           0.0000     STORAGE         
              STO-SY = 12042234135.7542                STO-SY =    29335156.3561     STORAGE         
                 WEL =           0.0000                   WEL =           0.0000     WEL_0           
                 DRN =           0.0000                   DRN =           0.0000     DRN_0           
                 RCH = 26933047413.5874                   RCH =    16212500.2997     RCH_0           

            TOTAL IN = 38975281549.3416              TOTAL IN =    45547656.6558

          OUT:                                     OUT:
          ----                                     ----
              STO-SS =           0.0000                STO-SS =           0.0000     STORAGE         
              STO-SY =  8631085889.7612                STO-SY =     2501915.3387     STORAGE         
                 WEL =  6408659522.3502                   WEL =    31100664.4564     WEL_0           
                 DRN = 23935527449.2237                   DRN =    11945052.3865     DRN_0           
                 RCH =           0.0000                   RCH =           0.0000     RCH_0           

           TOTAL OUT = 38975272861.3352             TOTAL OUT =    45547632.1815

            IN - OUT =        8688.0065              IN - OUT =          24.4743

 PERCENT DISCREPANCY =           0.00     PERCENT DISCREPANCY =           0.00




         TIME SUMMARY AT END OF TIME STEP    1 IN STRESS PERIOD  615
                          TIME STEP LENGTH =    1.00000    
                        STRESS PERIOD TIME =    1.00000    
                     TOTAL SIMULATION TIME =    615.000    

end timestep


start timestep kper="616" kstp="1" mode="normal"


 OUTPUT CONTROL FOR STRESS PERIOD 616 IS REPEATED USING SETTINGS FROM A PREVIOUS STRESS PERIOD.


 STRESS PERIOD 616 IS TRANSIENT


 REUSING WELS FROM LAST STRESS PERIOD

 REUSING DRNS FROM LAST STRESS PERIOD

 REUSING RCHS FROM LAST STRESS PERIOD


  VOLUME BUDGET FOR ENTIRE MODEL AT END OF TIME STEP    1, STRESS PERIOD 616
  ---------------------------------------------------------------------------------------------------

     CUMULATIVE VOLUME      L**3       RATES FOR THIS TIME STEP      L**3/T          PACKAGE NAME    
     ------------------                 ------------------------                     ----------------

           IN:                                      IN:
           ---                                      ---
              STO-SS =           0.0000                STO-SS =           0.0000     STORAGE         
              STO-SY = 12057495333.1059                STO-SY =    15261197.3517     STORAGE         
                 WEL =           0.0000                   WEL =           0.0000     WEL_0           
                 DRN =           0.0000                   DRN =           0.0000     DRN_0           
                 RCH = 26943404939.4238                   RCH =    10357525.8364     RCH_0           

            TOTAL IN = 39000900272.5297              TOTAL IN =    25618723.1881

          OUT:                                     OUT:
          ----                                     ----
              STO-SS =           0.0000                STO-SS =           0.0000     STORAGE         
              STO-SY =  8634138090.4423                STO-SY =     3052200.6811     STORAGE         
                 WEL =  6417699946.2509                   WEL =     9040423.9007     WEL_0           
                 DRN = 23949053494.9705                   DRN =    13526045.7468     DRN_0           
                 RCH =           0.0000                   RCH =           0.0000     RCH_0           

           TOTAL OUT = 39000891531.6637             TOTAL OUT =    25618670.3286

            IN - OUT =        8740.8660              IN - OUT =          52.8596

 PERCENT DISCREPANCY =           0.00     PERCENT DISCREPANCY =           0.00




         TIME SUMMARY AT END OF TIME STEP    1 IN STRESS PERIOD  616
                          TIME STEP LENGTH =    1.00000    
                        STRESS PERIOD TIME =    1.00000    
                     TOTAL SIMULATION TIME =    616.000    

end timestep


start timestep kper="617" kstp="1" mode="normal"


 OUTPUT CONTROL FOR STRESS PERIOD 617 IS REPEATED USING SETTINGS FROM A PREVIOUS STRESS PERIOD.


 STRESS PERIOD 617 IS TRANSIENT


 REUSING WELS FROM LAST STRESS PERIOD

 REUSING DRNS FROM LAST STRESS PERIOD

 REUSING RCHS FROM LAST STRESS PERIOD


  VOLUME BUDGET FOR ENTIRE MODEL AT END OF TIME STEP    1, STRESS PERIOD 617
  ---------------------------------------------------------------------------------------------------

     CUMULATIVE VOLUME      L**3       RATES FOR THIS TIME STEP      L**3/T          PACKAGE NAME    
     ------------------                 ------------------------                     ----------------

           IN:                                      IN:
           ---                                      ---
              STO-SS =           0.0000                STO-SS =           0.0000     STORAGE         
              STO-SY = 12072579621.7482                STO-SY =    15084288.6423     STORAGE         
                 WEL =           0.0000                   WEL =           0.0000     WEL_0           
                 DRN =           0.0000                   DRN =           0.0000     DRN_0           
                 RCH = 26951967591.6371                   RCH =     8562652.2133     RCH_0           

            TOTAL IN = 39024547213.3854              TOTAL IN =    23646940.8556

          OUT:                                     OUT:
          ----                                     ----
              STO-SS =           0.0000                STO-SS =           0.0000     STORAGE         
              STO-SY =  8637026865.9489                STO-SY =     2888775.5067     STORAGE         
                 WEL =  6426494670.6021                   WEL =     8794724.3512     WEL_0           
                 DRN = 23961016985.6079                   DRN =    11963490.6374     DRN_0           
                 RCH =           0.0000                   RCH =           0.0000     RCH_0           

           TOTAL OUT = 39024538522.1590             TOTAL OUT =    23646990.4953

            IN - OUT =        8691.2264              IN - OUT =         -49.6396

 PERCENT DISCREPANCY =           0.00     PERCENT DISCREPANCY =          -0.00




         TIME SUMMARY AT END OF TIME STEP    1 IN STRESS PERIOD  617
                          TIME STEP LENGTH =    1.00000    
                        STRESS PERIOD TIME =    1.00000    
                     TOTAL SIMULATION TIME =    617.000    

end timestep


start timestep kper="618" kstp="1" mode="normal"


 OUTPUT CONTROL FOR STRESS PERIOD 618 IS REPEATED USING SETTINGS FROM A PREVIOUS STRESS PERIOD.


 STRESS PERIOD 618 IS TRANSIENT


 REUSING WELS FROM LAST STRESS PERIOD

 REUSING DRNS FROM LAST STRESS PERIOD

 REUSING RCHS FROM LAST STRESS PERIOD


  VOLUME BUDGET FOR ENTIRE MODEL AT END OF TIME STEP    1, STRESS PERIOD 618
  ---------------------------------------------------------------------------------------------------

     CUMULATIVE VOLUME      L**3       RATES FOR THIS TIME STEP      L**3/T          PACKAGE NAME    
     ------------------                 ------------------------                     ----------------

           IN:                                      IN:
           ---                                      ---
              STO-SS =           0.0000                STO-SS =           0.0000     STORAGE         
              STO-SY = 12097521579.5664                STO-SY =    24941957.8181     STORAGE         
                 WEL =           0.0000                   WEL =           0.0000     WEL_0           
                 DRN =           0.0000                   DRN =           0.0000     DRN_0           
                 RCH = 26968839389.0894                   RCH =    16871797.4523     RCH_0           

            TOTAL IN = 39066360968.6558              TOTAL IN =    41813755.2704

          OUT:                                     OUT:
          ----                                     ----
              STO-SS =           0.0000                STO-SS =           0.0000     STORAGE         
              STO-SY =  8640128940.8822                STO-SY =     3102074.9333     STORAGE         
                 WEL =  6451989586.3734                   WEL =    25494915.7713     WEL_0           
                 DRN = 23974233739.8981                   DRN =    13216754.2901     DRN_0           
                 RCH =           0.0000                   RCH =           0.0000     RCH_0           

           TOTAL OUT = 39066352267.1537             TOTAL OUT =    41813744.9947

            IN - OUT =        8701.5022              IN - OUT =          10.2758

 PERCENT DISCREPANCY =           0.00     PERCENT DISCREPANCY =           0.00




         TIME SUMMARY AT END OF TIME STEP    1 IN STRESS PERIOD  618
                          TIME STEP LENGTH =    1.00000    
                        STRESS PERIOD TIME =    1.00000    
                     TOTAL SIMULATION TIME =    618.000    

end timestep


start timestep kper="619" kstp="1" mode="normal"


 OUTPUT CONTROL FOR STRESS PERIOD 619 IS REPEATED USING SETTINGS FROM A PREVIOUS STRESS PERIOD.


 STRESS PERIOD 619 IS TRANSIENT


 REUSING WELS FROM LAST STRESS PERIOD

 REUSING DRNS FROM LAST STRESS PERIOD

 REUSING RCHS FROM LAST STRESS PERIOD


  VOLUME BUDGET FOR ENTIRE MODEL AT END OF TIME STEP    1, STRESS PERIOD 619
  ---------------------------------------------------------------------------------------------------

     CUMULATIVE VOLUME      L**3       RATES FOR THIS TIME STEP      L**3/T          PACKAGE NAME    
     ------------------                 ------------------------                     ----------------

           IN:                                      IN:
           ---                                      ---
              STO-SS =           0.0000                STO-SS =           0.0000     STORAGE         
              STO-SY = 12115659447.7663                STO-SY =    18137868.2000     STORAGE         
                 WEL =           0.0000                   WEL =           0.0000     WEL_0           
                 DRN =           0.0000                   DRN =           0.0000     DRN_0           
                 RCH = 26980124957.0547                   RCH =    11285567.9652     RCH_0           

            TOTAL IN = 39095784404.8210              TOTAL IN =    29423436.1652

          OUT:                                     OUT:
          ----                                     ----
              STO-SS =           0.0000                STO-SS =           0.0000     STORAGE         
              STO-SY =  8643263654.7384                STO-SY =     3134713.8562     STORAGE         
                 WEL =  6466523220.8916                   WEL =    14533634.5182     WEL_0           
                 DRN = 23985988788.8294                   DRN =    11755048.9313     DRN_0           
                 RCH =           0.0000                   RCH =           0.0000     RCH_0           

           TOTAL OUT = 39095775664.4594             TOTAL OUT =    29423397.3057

            IN - OUT =        8740.3617              IN - OUT =          38.8595

 PERCENT DISCREPANCY =           0.00     PERCENT DISCREPANCY =           0.00




         TIME SUMMARY AT END OF TIME STEP    1 IN STRESS PERIOD  619
                          TIME STEP LENGTH =    1.00000    
                        STRESS PERIOD TIME =    1.00000    
                     TOTAL SIMULATION TIME =    619.000    

end timestep


start timestep kper="620" kstp="1" mode="normal"


 OUTPUT CONTROL FOR STRESS PERIOD 620 IS REPEATED USING SETTINGS FROM A PREVIOUS STRESS PERIOD.


 STRESS PERIOD 620 IS TRANSIENT


 REUSING WELS FROM LAST STRESS PERIOD

 REUSING DRNS FROM LAST STRESS PERIOD

 REUSING RCHS FROM LAST STRESS PERIOD


  VOLUME BUDGET FOR ENTIRE MODEL AT END OF TIME STEP    1, STRESS PERIOD 620
  ---------------------------------------------------------------------------------------------------

     CUMULATIVE VOLUME      L**3       RATES FOR THIS TIME STEP      L**3/T          PACKAGE NAME    
     ------------------                 ------------------------                     ----------------

           IN:                                      IN:
           ---                                      ---
              STO-SS =           0.0000                STO-SS =           0.0000     STORAGE         
              STO-SY = 12153098657.6216                STO-SY =    37439209.8553     STORAGE         
                 WEL =           0.0000                   WEL =           0.0000     WEL_0           
                 DRN =           0.0000                   DRN =           0.0000     DRN_0           
                 RCH = 27003306321.7109                   RCH =    23181364.6563     RCH_0           

            TOTAL IN = 39156404979.3325              TOTAL IN =    60620574.5115

          OUT:                                     OUT:
          ----                                     ----
              STO-SS =           0.0000                STO-SS =           0.0000     STORAGE         
              STO-SY =  8646897714.9995                STO-SY =     3634060.2611     STORAGE         
                 WEL =  6510389507.0707                   WEL =    43866286.1791     WEL_0           
                 DRN = 23999109030.4322                   DRN =    13120241.6028     DRN_0           
                 RCH =           0.0000                   RCH =           0.0000     RCH_0           

           TOTAL OUT = 39156396252.5024             TOTAL OUT =    60620588.0431

            IN - OUT =        8726.8301              IN - OUT =         -13.5316

 PERCENT DISCREPANCY =           0.00     PERCENT DISCREPANCY =          -0.00




         TIME SUMMARY AT END OF TIME STEP    1 IN STRESS PERIOD  620
                          TIME STEP LENGTH =    1.00000    
                        STRESS PERIOD TIME =    1.00000    
                     TOTAL SIMULATION TIME =    620.000    

end timestep


start timestep kper="621" kstp="1" mode="normal"


 OUTPUT CONTROL FOR STRESS PERIOD 621 IS REPEATED USING SETTINGS FROM A PREVIOUS STRESS PERIOD.


 STRESS PERIOD 621 IS TRANSIENT


 REUSING WELS FROM LAST STRESS PERIOD

 REUSING DRNS FROM LAST STRESS PERIOD

 REUSING RCHS FROM LAST STRESS PERIOD


  VOLUME BUDGET FOR ENTIRE MODEL AT END OF TIME STEP    1, STRESS PERIOD 621
  ---------------------------------------------------------------------------------------------------

     CUMULATIVE VOLUME      L**3       RATES FOR THIS TIME STEP      L**3/T          PACKAGE NAME    
     ------------------                 ------------------------                     ----------------

           IN:                                      IN:
           ---                                      ---
              STO-SS =           0.0000                STO-SS =           0.0000     STORAGE         
              STO-SY = 12182934850.4408                STO-SY =    29836192.8192     STORAGE         
                 WEL =           0.0000                   WEL =           0.0000     WEL_0           
                 DRN =           0.0000                   DRN =           0.0000     DRN_0           
                 RCH = 27020509993.9686                   RCH =    17203672.2576     RCH_0           

            TOTAL IN = 39203444844.4094              TOTAL IN =    47039865.0768

          OUT:                                     OUT:
          ----                                     ----
              STO-SS =           0.0000                STO-SS =           0.0000     STORAGE         
              STO-SY =  8649346136.5758                STO-SY =     2448421.5763     STORAGE         
                 WEL =  6543641028.4724                   WEL =    33251521.4017     WEL_0           
                 DRN = 24010448953.9668                   DRN =    11339923.5346     DRN_0           
                 RCH =           0.0000                   RCH =           0.0000     RCH_0           

           TOTAL OUT = 39203436119.0150             TOTAL OUT =    47039866.5126

            IN - OUT =        8725.3944              IN - OUT =          -1.4357

 PERCENT DISCREPANCY =           0.00     PERCENT DISCREPANCY =          -0.00




         TIME SUMMARY AT END OF TIME STEP    1 IN STRESS PERIOD  621
                          TIME STEP LENGTH =    1.00000    
                        STRESS PERIOD TIME =    1.00000    
                     TOTAL SIMULATION TIME =    621.000    

end timestep


start timestep kper="622" kstp="1" mode="normal"


 OUTPUT CONTROL FOR STRESS PERIOD 622 IS REPEATED USING SETTINGS FROM A PREVIOUS STRESS PERIOD.


 STRESS PERIOD 622 IS TRANSIENT


 REUSING WELS FROM LAST STRESS PERIOD

 REUSING DRNS FROM LAST STRESS PERIOD

 REUSING RCHS FROM LAST STRESS PERIOD


  VOLUME BUDGET FOR ENTIRE MODEL AT END OF TIME STEP    1, STRESS PERIOD 622
  ---------------------------------------------------------------------------------------------------

     CUMULATIVE VOLUME      L**3       RATES FOR THIS TIME STEP      L**3/T          PACKAGE NAME    
     ------------------                 ------------------------                     ----------------

           IN:                                      IN:
           ---                                      ---
              STO-SS =           0.0000                STO-SS =           0.0000     STORAGE         
              STO-SY = 12202076414.7247                STO-SY =    19141564.2839     STORAGE         
                 WEL =           0.0000                   WEL =           0.0000     WEL_0           
                 DRN =           0.0000                   DRN =           0.0000     DRN_0           
                 RCH = 27035530076.0124                   RCH =    15020082.0439     RCH_0           

            TOTAL IN = 39237606490.7372              TOTAL IN =    34161646.3278

          OUT:                                     OUT:
          ----                                     ----
              STO-SS =           0.0000                STO-SS =           0.0000     STORAGE         
              STO-SY =  8652719318.0982                STO-SY =     3373181.5224     STORAGE         
                 WEL =  6561706663.5212                   WEL =    18065635.0488     WEL_0           
                 DRN = 24023171775.3677                   DRN =    12722821.4009     DRN_0           
                 RCH =           0.0000                   RCH =           0.0000     RCH_0           

           TOTAL OUT = 39237597756.9871             TOTAL OUT =    34161637.9721

            IN - OUT =        8733.7501              IN - OUT =           8.3557

 PERCENT DISCREPANCY =           0.00     PERCENT DISCREPANCY =           0.00




         TIME SUMMARY AT END OF TIME STEP    1 IN STRESS PERIOD  622
                          TIME STEP LENGTH =    1.00000    
                        STRESS PERIOD TIME =    1.00000    
                     TOTAL SIMULATION TIME =    622.000    

end timestep


start timestep kper="623" kstp="1" mode="normal"


 OUTPUT CONTROL FOR STRESS PERIOD 623 IS REPEATED USING SETTINGS FROM A PREVIOUS STRESS PERIOD.


 STRESS PERIOD 623 IS TRANSIENT


 REUSING WELS FROM LAST STRESS PERIOD

 REUSING DRNS FROM LAST STRESS PERIOD

 REUSING RCHS FROM LAST STRESS PERIOD


  VOLUME BUDGET FOR ENTIRE MODEL AT END OF TIME STEP    1, STRESS PERIOD 623
  ---------------------------------------------------------------------------------------------------

     CUMULATIVE VOLUME      L**3       RATES FOR THIS TIME STEP      L**3/T          PACKAGE NAME    
     ------------------                 ------------------------                     ----------------

           IN:                                      IN:
           ---                                      ---
              STO-SS =           0.0000                STO-SS =           0.0000     STORAGE         
              STO-SY = 12217103356.6850                STO-SY =    15026941.9603     STORAGE         
                 WEL =           0.0000                   WEL =           0.0000     WEL_0           
                 DRN =           0.0000                   DRN =           0.0000     DRN_0           
                 RCH = 27043697278.3693                   RCH =     8167202.3569     RCH_0           

            TOTAL IN = 39260800635.0543              TOTAL IN =    23194144.3171

          OUT:                                     OUT:
          ----                                     ----
              STO-SS =           0.0000                STO-SS =           0.0000     STORAGE         
              STO-SY =  8655695270.2825                STO-SY =     2975952.1843     STORAGE         
                 WEL =  6570660944.0289                   WEL =     8954280.5077     WEL_0           
                 DRN = 24034435701.2176                   DRN =    11263925.8499     DRN_0           
                 RCH =           0.0000                   RCH =           0.0000     RCH_0           

           TOTAL OUT = 39260791915.5289             TOTAL OUT =    23194158.5418

            IN - OUT =        8719.5254              IN - OUT =         -14.2247

 PERCENT DISCREPANCY =           0.00     PERCENT DISCREPANCY =          -0.00




         TIME SUMMARY AT END OF TIME STEP    1 IN STRESS PERIOD  623
                          TIME STEP LENGTH =    1.00000    
                        STRESS PERIOD TIME =    1.00000    
                     TOTAL SIMULATION TIME =    623.000    

end timestep


start timestep kper="624" kstp="1" mode="normal"


 OUTPUT CONTROL FOR STRESS PERIOD 624 IS REPEATED USING SETTINGS FROM A PREVIOUS STRESS PERIOD.


 STRESS PERIOD 624 IS TRANSIENT


 REUSING WELS FROM LAST STRESS PERIOD

 REUSING DRNS FROM LAST STRESS PERIOD

 REUSING RCHS FROM LAST STRESS PERIOD


  VOLUME BUDGET FOR ENTIRE MODEL AT END OF TIME STEP    1, STRESS PERIOD 624
  ---------------------------------------------------------------------------------------------------

     CUMULATIVE VOLUME      L**3       RATES FOR THIS TIME STEP      L**3/T          PACKAGE NAME    
     ------------------                 ------------------------                     ----------------

           IN:                                      IN:
           ---                                      ---
              STO-SS =           0.0000                STO-SS =           0.0000     STORAGE         
              STO-SY = 12232170831.7565                STO-SY =    15067475.0715     STORAGE         
                 WEL =           0.0000                   WEL =           0.0000     WEL_0           
                 DRN =           0.0000                   DRN =           0.0000     DRN_0           
                 RCH = 27053382134.7904                   RCH =     9684856.4210     RCH_0           

            TOTAL IN = 39285552966.5469              TOTAL IN =    24752331.4926

          OUT:                                     OUT:
          ----                                     ----
              STO-SS =           0.0000                STO-SS =           0.0000     STORAGE         
              STO-SY =  8658525241.0534                STO-SY =     2829970.7709     STORAGE         
                 WEL =  6579805994.0757                   WEL =     9145050.0468     WEL_0           
                 DRN = 24047212972.6577                   DRN =    12777271.4401     DRN_0           
                 RCH =           0.0000                   RCH =           0.0000     RCH_0           

           TOTAL OUT = 39285544207.7868             TOTAL OUT =    24752292.2579

            IN - OUT =        8758.7601              IN - OUT =          39.2347

 PERCENT DISCREPANCY =           0.00     PERCENT DISCREPANCY =           0.00




         TIME SUMMARY AT END OF TIME STEP    1 IN STRESS PERIOD  624
                          TIME STEP LENGTH =    1.00000    
                        STRESS PERIOD TIME =    1.00000    
                     TOTAL SIMULATION TIME =    624.000    

end timestep


start timestep kper="625" kstp="1" mode="normal"


 OUTPUT CONTROL FOR STRESS PERIOD 625 IS REPEATED USING SETTINGS FROM A PREVIOUS STRESS PERIOD.


 STRESS PERIOD 625 IS TRANSIENT


 REUSING WELS FROM LAST STRESS PERIOD

 REUSING DRNS FROM LAST STRESS PERIOD

 REUSING RCHS FROM LAST STRESS PERIOD


  VOLUME BUDGET FOR ENTIRE MODEL AT END OF TIME STEP    1, STRESS PERIOD 625
  ---------------------------------------------------------------------------------------------------

     CUMULATIVE VOLUME      L**3       RATES FOR THIS TIME STEP      L**3/T          PACKAGE NAME    
     ------------------                 ------------------------                     ----------------

           IN:                                      IN:
           ---                                      ---
              STO-SS =           0.0000                STO-SS =           0.0000     STORAGE         
              STO-SY = 12264305079.8394                STO-SY =    32134248.0829     STORAGE         
                 WEL =           0.0000                   WEL =           0.0000     WEL_0           
                 DRN =           0.0000                   DRN =           0.0000     DRN_0           
                 RCH = 27070451076.4223                   RCH =    17068941.6320     RCH_0           

            TOTAL IN = 39334756156.2618              TOTAL IN =    49203189.7149

          OUT:                                     OUT:
          ----                                     ----
              STO-SS =           0.0000                STO-SS =           0.0000     STORAGE         
              STO-SY =  8661131979.3218                STO-SY =     2606738.2684     STORAGE         
                 WEL =  6615730383.6792                   WEL =    35924389.6035     WEL_0           
                 DRN = 24057885004.3970                   DRN =    10672031.7394     DRN_0           
                 RCH =           0.0000                   RCH =           0.0000     RCH_0           

           TOTAL OUT = 39334747367.3981             TOTAL OUT =    49203159.6113

            IN - OUT =        8788.8637              IN - OUT =          30.1036

 PERCENT DISCREPANCY =           0.00     PERCENT DISCREPANCY =           0.00




         TIME SUMMARY AT END OF TIME STEP    1 IN STRESS PERIOD  625
                          TIME STEP LENGTH =    1.00000    
                        STRESS PERIOD TIME =    1.00000    
                     TOTAL SIMULATION TIME =    625.000    

end timestep


start timestep kper="626" kstp="1" mode="normal"


 OUTPUT CONTROL FOR STRESS PERIOD 626 IS REPEATED USING SETTINGS FROM A PREVIOUS STRESS PERIOD.


 STRESS PERIOD 626 IS TRANSIENT


 REUSING WELS FROM LAST STRESS PERIOD

 REUSING DRNS FROM LAST STRESS PERIOD

 REUSING RCHS FROM LAST STRESS PERIOD


  VOLUME BUDGET FOR ENTIRE MODEL AT END OF TIME STEP    1, STRESS PERIOD 626
  ---------------------------------------------------------------------------------------------------

     CUMULATIVE VOLUME      L**3       RATES FOR THIS TIME STEP      L**3/T          PACKAGE NAME    
     ------------------                 ------------------------                     ----------------

           IN:                                      IN:
           ---                                      ---
              STO-SS =           0.0000                STO-SS =           0.0000     STORAGE         
              STO-SY = 12281182225.8020                STO-SY =    16877145.9626     STORAGE         
                 WEL =           0.0000                   WEL =           0.0000     WEL_0           
                 DRN =           0.0000                   DRN =           0.0000     DRN_0           
                 RCH = 27081431326.7726                   RCH =    10980250.3502     RCH_0           

            TOTAL IN = 39362613552.5746              TOTAL IN =    27857396.3128

          OUT:                                     OUT:
          ----                                     ----
              STO-SS =           0.0000                STO-SS =           0.0000     STORAGE         
              STO-SY =  8664097879.4055                STO-SY =     2965900.0837     STORAGE         
                 WEL =  6628038288.1683                   WEL =    12307904.4890     WEL_0           
                 DRN = 24070468562.1331                   DRN =    12583557.7361     DRN_0           
                 RCH =           0.0000                   RCH =           0.0000     RCH_0           

           TOTAL OUT = 39362604729.7069             TOTAL OUT =    27857362.3089

            IN - OUT =        8822.8676              IN - OUT =          34.0039

 PERCENT DISCREPANCY =           0.00     PERCENT DISCREPANCY =           0.00




         TIME SUMMARY AT END OF TIME STEP    1 IN STRESS PERIOD  626
                          TIME STEP LENGTH =    1.00000    
                        STRESS PERIOD TIME =    1.00000    
                     TOTAL SIMULATION TIME =    626.000    

end timestep


start timestep kper="627" kstp="1" mode="normal"


 OUTPUT CONTROL FOR STRESS PERIOD 627 IS REPEATED USING SETTINGS FROM A PREVIOUS STRESS PERIOD.


 STRESS PERIOD 627 IS TRANSIENT


 REUSING WELS FROM LAST STRESS PERIOD

 REUSING DRNS FROM LAST STRESS PERIOD

 REUSING RCHS FROM LAST STRESS PERIOD


  VOLUME BUDGET FOR ENTIRE MODEL AT END OF TIME STEP    1, STRESS PERIOD 627
  ---------------------------------------------------------------------------------------------------

     CUMULATIVE VOLUME      L**3       RATES FOR THIS TIME STEP      L**3/T          PACKAGE NAME    
     ------------------                 ------------------------                     ----------------

           IN:                                      IN:
           ---                                      ---
              STO-SS =           0.0000                STO-SS =           0.0000     STORAGE         
              STO-SY = 12296684721.9207                STO-SY =    15502496.1187     STORAGE         
                 WEL =           0.0000                   WEL =           0.0000     WEL_0           
                 DRN =           0.0000                   DRN =           0.0000     DRN_0           
                 RCH = 27089576364.1526                   RCH =     8145037.3800     RCH_0           

            TOTAL IN = 39386261086.0732              TOTAL IN =    23647533.4987

          OUT:                                     OUT:
          ----                                     ----
              STO-SS =           0.0000                STO-SS =           0.0000     STORAGE         
              STO-SY =  8666898193.8469                STO-SY =     2800314.4414     STORAGE         
                 WEL =  6637891077.1478                   WEL =     9852788.9795     WEL_0           
                 DRN = 24081462995.0846                   DRN =    10994432.9515     DRN_0           
                 RCH =           0.0000                   RCH =           0.0000     RCH_0           

           TOTAL OUT = 39386252266.0793             TOTAL OUT =    23647536.3724

            IN - OUT =        8819.9939              IN - OUT =          -2.8737

 PERCENT DISCREPANCY =           0.00     PERCENT DISCREPANCY =          -0.00




         TIME SUMMARY AT END OF TIME STEP    1 IN STRESS PERIOD  627
                          TIME STEP LENGTH =    1.00000    
                        STRESS PERIOD TIME =    1.00000    
                     TOTAL SIMULATION TIME =    627.000    

end timestep


start timestep kper="628" kstp="1" mode="normal"


 OUTPUT CONTROL FOR STRESS PERIOD 628 IS REPEATED USING SETTINGS FROM A PREVIOUS STRESS PERIOD.


 STRESS PERIOD 628 IS TRANSIENT


 REUSING WELS FROM LAST STRESS PERIOD

 REUSING DRNS FROM LAST STRESS PERIOD

 REUSING RCHS FROM LAST STRESS PERIOD


  VOLUME BUDGET FOR ENTIRE MODEL AT END OF TIME STEP    1, STRESS PERIOD 628
  ---------------------------------------------------------------------------------------------------

     CUMULATIVE VOLUME      L**3       RATES FOR THIS TIME STEP      L**3/T          PACKAGE NAME    
     ------------------                 ------------------------                     ----------------

           IN:                                      IN:
           ---                                      ---
              STO-SS =           0.0000                STO-SS =           0.0000     STORAGE         
              STO-SY = 12313766606.3169                STO-SY =    17081884.3962     STORAGE         
                 WEL =           0.0000                   WEL =           0.0000     WEL_0           
                 DRN =           0.0000                   DRN =           0.0000     DRN_0           
                 RCH = 27099795241.3108                   RCH =    10218877.1582     RCH_0           

            TOTAL IN = 39413561847.6277              TOTAL IN =    27300761.5545

          OUT:                                     OUT:
          ----                                     ----
              STO-SS =           0.0000                STO-SS =           0.0000     STORAGE         
              STO-SY =  8669465778.4715                STO-SY =     2567584.6246     STORAGE         
                 WEL =  6650290540.1756                   WEL =    12399463.0278     WEL_0           
                 DRN = 24093796695.7085                   DRN =    12333700.6239     DRN_0           
                 RCH =           0.0000                   RCH =           0.0000     RCH_0           

           TOTAL OUT = 39413553014.3556             TOTAL OUT =    27300748.2762

            IN - OUT =        8833.2722              IN - OUT =          13.2782

 PERCENT DISCREPANCY =           0.00     PERCENT DISCREPANCY =           0.00




         TIME SUMMARY AT END OF TIME STEP    1 IN STRESS PERIOD  628
                          TIME STEP LENGTH =    1.00000    
                        STRESS PERIOD TIME =    1.00000    
                     TOTAL SIMULATION TIME =    628.000    

end timestep


start timestep kper="629" kstp="1" mode="normal"


 OUTPUT CONTROL FOR STRESS PERIOD 629 IS REPEATED USING SETTINGS FROM A PREVIOUS STRESS PERIOD.


 STRESS PERIOD 629 IS TRANSIENT


 REUSING WELS FROM LAST STRESS PERIOD

 REUSING DRNS FROM LAST STRESS PERIOD

 REUSING RCHS FROM LAST STRESS PERIOD


  VOLUME BUDGET FOR ENTIRE MODEL AT END OF TIME STEP    1, STRESS PERIOD 629
  ---------------------------------------------------------------------------------------------------

     CUMULATIVE VOLUME      L**3       RATES FOR THIS TIME STEP      L**3/T          PACKAGE NAME    
     ------------------                 ------------------------                     ----------------

           IN:                                      IN:
           ---                                      ---
              STO-SS =           0.0000                STO-SS =           0.0000     STORAGE         
              STO-SY = 12338369370.9284                STO-SY =    24602764.6115     STORAGE         
                 WEL =           0.0000                   WEL =           0.0000     WEL_0           
                 DRN =           0.0000                   DRN =           0.0000     DRN_0           
                 RCH = 27114884107.3245                   RCH =    15088866.0138     RCH_0           

            TOTAL IN = 39453253478.2529              TOTAL IN =    39691630.6252

          OUT:                                     OUT:
          ----                                     ----
              STO-SS =           0.0000                STO-SS =           0.0000     STORAGE         
              STO-SY =  8673204830.5642                STO-SY =     3739052.0927     STORAGE         
                 WEL =  6675472224.8455                   WEL =    25181684.6699     WEL_0           
                 DRN = 24104567591.8307                   DRN =    10770896.1222     DRN_0           
                 RCH =           0.0000                   RCH =           0.0000     RCH_0           

           TOTAL OUT = 39453244647.2404             TOTAL OUT =    39691632.8848

            IN - OUT =        8831.0126              IN - OUT =          -2.2596

 PERCENT DISCREPANCY =           0.00     PERCENT DISCREPANCY =          -0.00




         TIME SUMMARY AT END OF TIME STEP    1 IN STRESS PERIOD  629
                          TIME STEP LENGTH =    1.00000    
                        STRESS PERIOD TIME =    1.00000    
                     TOTAL SIMULATION TIME =    629.000    

end timestep


start timestep kper="630" kstp="1" mode="normal"


 OUTPUT CONTROL FOR STRESS PERIOD 630 IS REPEATED USING SETTINGS FROM A PREVIOUS STRESS PERIOD.


 STRESS PERIOD 630 IS TRANSIENT


 REUSING WELS FROM LAST STRESS PERIOD

 REUSING DRNS FROM LAST STRESS PERIOD

 REUSING RCHS FROM LAST STRESS PERIOD


  VOLUME BUDGET FOR ENTIRE MODEL AT END OF TIME STEP    1, STRESS PERIOD 630
  ---------------------------------------------------------------------------------------------------

     CUMULATIVE VOLUME      L**3       RATES FOR THIS TIME STEP      L**3/T          PACKAGE NAME    
     ------------------                 ------------------------                     ----------------

           IN:                                      IN:
           ---                                      ---
              STO-SS =           0.0000                STO-SS =           0.0000     STORAGE         
              STO-SY = 12362565863.5259                STO-SY =    24196492.5975     STORAGE         
                 WEL =           0.0000                   WEL =           0.0000     WEL_0           
                 DRN =           0.0000                   DRN =           0.0000     DRN_0           
                 RCH = 27131233753.8787                   RCH =    16349646.5542     RCH_0           

            TOTAL IN = 39493799617.4047              TOTAL IN =    40546139.1517

          OUT:                                     OUT:
          ----                                     ----
              STO-SS =           0.0000                STO-SS =           0.0000     STORAGE         
              STO-SY =  8676597819.9200                STO-SY =     3392989.3558     STORAGE         
                 WEL =  6700439979.5100                   WEL =    24967754.6645     WEL_0           
                 DRN = 24116752964.7994                   DRN =    12185372.9687     DRN_0           
                 RCH =           0.0000                   RCH =           0.0000     RCH_0           

           TOTAL OUT = 39493790764.2295             TOTAL OUT =    40546116.9891

            IN - OUT =        8853.1752              IN - OUT =          22.1626

 PERCENT DISCREPANCY =           0.00     PERCENT DISCREPANCY =           0.00




         TIME SUMMARY AT END OF TIME STEP    1 IN STRESS PERIOD  630
                          TIME STEP LENGTH =    1.00000    
                        STRESS PERIOD TIME =    1.00000    
                     TOTAL SIMULATION TIME =    630.000    

end timestep


start timestep kper="631" kstp="1" mode="normal"


 OUTPUT CONTROL FOR STRESS PERIOD 631 IS REPEATED USING SETTINGS FROM A PREVIOUS STRESS PERIOD.


 STRESS PERIOD 631 IS TRANSIENT


 REUSING WELS FROM LAST STRESS PERIOD

 REUSING DRNS FROM LAST STRESS PERIOD

 REUSING RCHS FROM LAST STRESS PERIOD


  VOLUME BUDGET FOR ENTIRE MODEL AT END OF TIME STEP    1, STRESS PERIOD 631
  ---------------------------------------------------------------------------------------------------

     CUMULATIVE VOLUME      L**3       RATES FOR THIS TIME STEP      L**3/T          PACKAGE NAME    
     ------------------                 ------------------------                     ----------------

           IN:                                      IN:
           ---                                      ---
              STO-SS =           0.0000                STO-SS =           0.0000     STORAGE         
              STO-SY = 12384479372.5443                STO-SY =    21913509.0184     STORAGE         
                 WEL =           0.0000                   WEL =           0.0000     WEL_0           
                 DRN =           0.0000                   DRN =           0.0000     DRN_0           
                 RCH = 27143195783.3610                   RCH =    11962029.4822     RCH_0           

            TOTAL IN = 39527675155.9052              TOTAL IN =    33875538.5006

          OUT:                                     OUT:
          ----                                     ----
              STO-SS =           0.0000                STO-SS =           0.0000     STORAGE         
              STO-SY =  8679200604.9916                STO-SY =     2602785.0716     STORAGE         
                 WEL =  6721414028.1056                   WEL =    20974048.5956     WEL_0           
                 DRN = 24127051688.6794                   DRN =    10298723.8800     DRN_0           
                 RCH =           0.0000                   RCH =           0.0000     RCH_0           

           TOTAL OUT = 39527666321.7766             TOTAL OUT =    33875557.5472

            IN - OUT =        8834.1286              IN - OUT =         -19.0466

 PERCENT DISCREPANCY =           0.00     PERCENT DISCREPANCY =          -0.00




         TIME SUMMARY AT END OF TIME STEP    1 IN STRESS PERIOD  631
                          TIME STEP LENGTH =    1.00000    
                        STRESS PERIOD TIME =    1.00000    
                     TOTAL SIMULATION TIME =    631.000    

end timestep


start timestep kper="632" kstp="1" mode="normal"


 OUTPUT CONTROL FOR STRESS PERIOD 632 IS REPEATED USING SETTINGS FROM A PREVIOUS STRESS PERIOD.


 STRESS PERIOD 632 IS TRANSIENT


 REUSING WELS FROM LAST STRESS PERIOD

 REUSING DRNS FROM LAST STRESS PERIOD

 REUSING RCHS FROM LAST STRESS PERIOD


  VOLUME BUDGET FOR ENTIRE MODEL AT END OF TIME STEP    1, STRESS PERIOD 632
  ---------------------------------------------------------------------------------------------------

     CUMULATIVE VOLUME      L**3       RATES FOR THIS TIME STEP      L**3/T          PACKAGE NAME    
     ------------------                 ------------------------                     ----------------

           IN:                                      IN:
           ---                                      ---
              STO-SS =           0.0000                STO-SS =           0.0000     STORAGE         
              STO-SY = 12406364365.8547                STO-SY =    21884993.3104     STORAGE         
                 WEL =           0.0000                   WEL =           0.0000     WEL_0           
                 DRN =           0.0000                   DRN =           0.0000     DRN_0           
                 RCH = 27156824184.1811                   RCH =    13628400.8201     RCH_0           

            TOTAL IN = 39563188550.0358              TOTAL IN =    35513394.1306

          OUT:                                     OUT:
          ----                                     ----
              STO-SS =           0.0000                STO-SS =           0.0000     STORAGE         
              STO-SY =  8681879032.6544                STO-SY =     2678427.6628     STORAGE         
                 WEL =  6742395908.9062                   WEL =    20981880.8006     WEL_0           
                 DRN = 24138904769.6886                   DRN =    11853081.0092     DRN_0           
                 RCH =           0.0000                   RCH =           0.0000     RCH_0           

           TOTAL OUT = 39563179711.2492             TOTAL OUT =    35513389.4726

            IN - OUT =        8838.7866              IN - OUT =           4.6580

 PERCENT DISCREPANCY =           0.00     PERCENT DISCREPANCY =           0.00




         TIME SUMMARY AT END OF TIME STEP    1 IN STRESS PERIOD  632
                          TIME STEP LENGTH =    1.00000    
                        STRESS PERIOD TIME =    1.00000    
                     TOTAL SIMULATION TIME =    632.000    

end timestep


start timestep kper="633" kstp="1" mode="normal"


 OUTPUT CONTROL FOR STRESS PERIOD 633 IS REPEATED USING SETTINGS FROM A PREVIOUS STRESS PERIOD.


 STRESS PERIOD 633 IS TRANSIENT


 REUSING WELS FROM LAST STRESS PERIOD

 REUSING DRNS FROM LAST STRESS PERIOD

 REUSING RCHS FROM LAST STRESS PERIOD


  VOLUME BUDGET FOR ENTIRE MODEL AT END OF TIME STEP    1, STRESS PERIOD 633
  ---------------------------------------------------------------------------------------------------

     CUMULATIVE VOLUME      L**3       RATES FOR THIS TIME STEP      L**3/T          PACKAGE NAME    
     ------------------                 ------------------------                     ----------------

           IN:                                      IN:
           ---                                      ---
              STO-SS =           0.0000                STO-SS =           0.0000     STORAGE         
              STO-SY = 12429362026.2119                STO-SY =    22997660.3572     STORAGE         
                 WEL =           0.0000                   WEL =           0.0000     WEL_0           
                 DRN =           0.0000                   DRN =           0.0000     DRN_0           
                 RCH = 27167895312.5055                   RCH =    11071128.3244     RCH_0           

            TOTAL IN = 39597257338.7175              TOTAL IN =    34068788.6816

          OUT:                                     OUT:
          ----                                     ----
              STO-SS =           0.0000                STO-SS =           0.0000     STORAGE         
              STO-SY =  8684190863.6954                STO-SY =     2311831.0410     STORAGE         
                 WEL =  6763949748.6697                   WEL =    21553839.7635     WEL_0           
                 DRN = 24149107909.9046                   DRN =    10203140.2160     DRN_0           
                 RCH =           0.0000                   RCH =           0.0000     RCH_0           

           TOTAL OUT = 39597248522.2697             TOTAL OUT =    34068811.0205

            IN - OUT =        8816.4477              IN - OUT =         -22.3389

 PERCENT DISCREPANCY =           0.00     PERCENT DISCREPANCY =          -0.00




         TIME SUMMARY AT END OF TIME STEP    1 IN STRESS PERIOD  633
                          TIME STEP LENGTH =    1.00000    
                        STRESS PERIOD TIME =    1.00000    
                     TOTAL SIMULATION TIME =    633.000    

end timestep


start timestep kper="634" kstp="1" mode="normal"


 OUTPUT CONTROL FOR STRESS PERIOD 634 IS REPEATED USING SETTINGS FROM A PREVIOUS STRESS PERIOD.


 STRESS PERIOD 634 IS TRANSIENT


 REUSING WELS FROM LAST STRESS PERIOD

 REUSING DRNS FROM LAST STRESS PERIOD

 REUSING RCHS FROM LAST STRESS PERIOD


  VOLUME BUDGET FOR ENTIRE MODEL AT END OF TIME STEP    1, STRESS PERIOD 634
  ---------------------------------------------------------------------------------------------------

     CUMULATIVE VOLUME      L**3       RATES FOR THIS TIME STEP      L**3/T          PACKAGE NAME    
     ------------------                 ------------------------                     ----------------

           IN:                                      IN:
           ---                                      ---
              STO-SS =           0.0000                STO-SS =           0.0000     STORAGE         
              STO-SY = 12451462193.2239                STO-SY =    22100167.0120     STORAGE         
                 WEL =           0.0000                   WEL =           0.0000     WEL_0           
                 DRN =           0.0000                   DRN =           0.0000     DRN_0           
                 RCH = 27180881598.2367                   RCH =    12986285.7312     RCH_0           

            TOTAL IN = 39632343791.4606              TOTAL IN =    35086452.7432

          OUT:                                     OUT:
          ----                                     ----
              STO-SS =           0.0000                STO-SS =           0.0000     STORAGE         
              STO-SY =  8686980345.3888                STO-SY =     2789481.6935     STORAGE         
                 WEL =  6784582031.2772                   WEL =    20632282.6075     WEL_0           
                 DRN = 24160772598.8131                   DRN =    11664688.9085     DRN_0           
                 RCH =           0.0000                   RCH =           0.0000     RCH_0           

           TOTAL OUT = 39632334975.4792             TOTAL OUT =    35086453.2095

            IN - OUT =        8815.9814              IN - OUT =          -0.4663

 PERCENT DISCREPANCY =           0.00     PERCENT DISCREPANCY =          -0.00




         TIME SUMMARY AT END OF TIME STEP    1 IN STRESS PERIOD  634
                          TIME STEP LENGTH =    1.00000    
                        STRESS PERIOD TIME =    1.00000    
                     TOTAL SIMULATION TIME =    634.000    

end timestep


start timestep kper="635" kstp="1" mode="normal"


 OUTPUT CONTROL FOR STRESS PERIOD 635 IS REPEATED USING SETTINGS FROM A PREVIOUS STRESS PERIOD.


 STRESS PERIOD 635 IS TRANSIENT


 REUSING WELS FROM LAST STRESS PERIOD

 REUSING DRNS FROM LAST STRESS PERIOD

 REUSING RCHS FROM LAST STRESS PERIOD


  VOLUME BUDGET FOR ENTIRE MODEL AT END OF TIME STEP    1, STRESS PERIOD 635
  ---------------------------------------------------------------------------------------------------

     CUMULATIVE VOLUME      L**3       RATES FOR THIS TIME STEP      L**3/T          PACKAGE NAME    
     ------------------                 ------------------------                     ----------------

           IN:                                      IN:
           ---                                      ---
              STO-SS =           0.0000                STO-SS =           0.0000     STORAGE         
              STO-SY = 12478764680.6999                STO-SY =    27302487.4760     STORAGE         
                 WEL =           0.0000                   WEL =           0.0000     WEL_0           
                 DRN =           0.0000                   DRN =           0.0000     DRN_0           
                 RCH = 27195411925.8240                   RCH =    14530327.5872     RCH_0           

            TOTAL IN = 39674176606.5239              TOTAL IN =    41832815.0632

          OUT:                                     OUT:
          ----                                     ----
              STO-SS =           0.0000                STO-SS =           0.0000     STORAGE         
              STO-SY =  8689589967.0169                STO-SY =     2609621.6280     STORAGE         
                 WEL =  6813927125.9847                   WEL =    29345094.7074     WEL_0           
                 DRN = 24170650698.9167                   DRN =     9878100.1036     DRN_0           
                 RCH =           0.0000                   RCH =           0.0000     RCH_0           

           TOTAL OUT = 39674167791.9183             TOTAL OUT =    41832816.4391

            IN - OUT =        8814.6056              IN - OUT =          -1.3759

 PERCENT DISCREPANCY =           0.00     PERCENT DISCREPANCY =          -0.00




         TIME SUMMARY AT END OF TIME STEP    1 IN STRESS PERIOD  635
                          TIME STEP LENGTH =    1.00000    
                        STRESS PERIOD TIME =    1.00000    
                     TOTAL SIMULATION TIME =    635.000    

end timestep


start timestep kper="636" kstp="1" mode="normal"


 OUTPUT CONTROL FOR STRESS PERIOD 636 IS REPEATED USING SETTINGS FROM A PREVIOUS STRESS PERIOD.


 STRESS PERIOD 636 IS TRANSIENT


 REUSING WELS FROM LAST STRESS PERIOD

 REUSING DRNS FROM LAST STRESS PERIOD

 REUSING RCHS FROM LAST STRESS PERIOD


  VOLUME BUDGET FOR ENTIRE MODEL AT END OF TIME STEP    1, STRESS PERIOD 636
  ---------------------------------------------------------------------------------------------------

     CUMULATIVE VOLUME      L**3       RATES FOR THIS TIME STEP      L**3/T          PACKAGE NAME    
     ------------------                 ------------------------                     ----------------

           IN:                                      IN:
           ---                                      ---
              STO-SS =           0.0000                STO-SS =           0.0000     STORAGE         
              STO-SY = 12505590698.8153                STO-SY =    26826018.1154     STORAGE         
                 WEL =           0.0000                   WEL =           0.0000     WEL_0           
                 DRN =           0.0000                   DRN =           0.0000     DRN_0           
                 RCH = 27212324045.3462                   RCH =    16912119.5223     RCH_0           

            TOTAL IN = 39717914744.1615              TOTAL IN =    43738137.6377

          OUT:                                     OUT:
          ----                                     ----
              STO-SS =           0.0000                STO-SS =           0.0000     STORAGE         
              STO-SY =  8692571100.8076                STO-SY =     2981133.7907     STORAGE         
                 WEL =  6843063618.3978                   WEL =    29136492.4131     WEL_0           
                 DRN = 24182271072.8617                   DRN =    11620373.9450     DRN_0           
                 RCH =           0.0000                   RCH =           0.0000     RCH_0           

           TOTAL OUT = 39717905792.0671             TOTAL OUT =    43738000.1488

            IN - OUT =        8952.0944              IN - OUT =         137.4888

 PERCENT DISCREPANCY =           0.00     PERCENT DISCREPANCY =           0.00




         TIME SUMMARY AT END OF TIME STEP    1 IN STRESS PERIOD  636
                          TIME STEP LENGTH =    1.00000    
                        STRESS PERIOD TIME =    1.00000    
                     TOTAL SIMULATION TIME =    636.000    

end timestep


start timestep kper="637" kstp="1" mode="normal"


 OUTPUT CONTROL FOR STRESS PERIOD 637 IS REPEATED USING SETTINGS FROM A PREVIOUS STRESS PERIOD.


 STRESS PERIOD 637 IS TRANSIENT


 REUSING WELS FROM LAST STRESS PERIOD

 REUSING DRNS FROM LAST STRESS PERIOD

 REUSING RCHS FROM LAST STRESS PERIOD


  VOLUME BUDGET FOR ENTIRE MODEL AT END OF TIME STEP    1, STRESS PERIOD 637
  ---------------------------------------------------------------------------------------------------

     CUMULATIVE VOLUME      L**3       RATES FOR THIS TIME STEP      L**3/T          PACKAGE NAME    
     ------------------                 ------------------------                     ----------------

           IN:                                      IN:
           ---                                      ---
              STO-SS =           0.0000                STO-SS =           0.0000     STORAGE         
              STO-SY = 12527704054.1528                STO-SY =    22113355.3375     STORAGE         
                 WEL =           0.0000                   WEL =           0.0000     WEL_0           
                 DRN =           0.0000                   DRN =           0.0000     DRN_0           
                 RCH = 27223751682.5244                   RCH =    11427637.1782     RCH_0           

            TOTAL IN = 39751455736.6772              TOTAL IN =    33540992.5157

          OUT:                                     OUT:
          ----                                     ----
              STO-SS =           0.0000                STO-SS =           0.0000     STORAGE         
              STO-SY =  8695362930.1094                STO-SY =     2791829.3018     STORAGE         
                 WEL =  6863944858.6265                   WEL =    20881240.2287     WEL_0           
                 DRN = 24192138992.3848                   DRN =     9867919.5230     DRN_0           
                 RCH =           0.0000                   RCH =           0.0000     RCH_0           

           TOTAL OUT = 39751446781.1207             TOTAL OUT =    33540989.0536

            IN - OUT =        8955.5565              IN - OUT =           3.4621

 PERCENT DISCREPANCY =           0.00     PERCENT DISCREPANCY =           0.00




         TIME SUMMARY AT END OF TIME STEP    1 IN STRESS PERIOD  637
                          TIME STEP LENGTH =    1.00000    
                        STRESS PERIOD TIME =    1.00000    
                     TOTAL SIMULATION TIME =    637.000    

end timestep


start timestep kper="638" kstp="1" mode="normal"


 OUTPUT CONTROL FOR STRESS PERIOD 638 IS REPEATED USING SETTINGS FROM A PREVIOUS STRESS PERIOD.


 STRESS PERIOD 638 IS TRANSIENT


 REUSING WELS FROM LAST STRESS PERIOD

 REUSING DRNS FROM LAST STRESS PERIOD

 REUSING RCHS FROM LAST STRESS PERIOD


  VOLUME BUDGET FOR ENTIRE MODEL AT END OF TIME STEP    1, STRESS PERIOD 638
  ---------------------------------------------------------------------------------------------------

     CUMULATIVE VOLUME      L**3       RATES FOR THIS TIME STEP      L**3/T          PACKAGE NAME    
     ------------------                 ------------------------                     ----------------

           IN:                                      IN:
           ---                                      ---
              STO-SS =           0.0000                STO-SS =           0.0000     STORAGE         
              STO-SY = 12545655942.3713                STO-SY =    17951888.2185     STORAGE         
                 WEL =           0.0000                   WEL =           0.0000     WEL_0           
                 DRN =           0.0000                   DRN =           0.0000     DRN_0           
                 RCH = 27234293186.3467                   RCH =    10541503.8223     RCH_0           

            TOTAL IN = 39779949128.7180              TOTAL IN =    28493392.0408

          OUT:                                     OUT:
          ----                                     ----
              STO-SS =           0.0000                STO-SS =           0.0000     STORAGE         
              STO-SY =  8698120892.6052                STO-SY =     2757962.4958     STORAGE         
                 WEL =  6878488194.3495                   WEL =    14543335.7230     WEL_0           
                 DRN = 24203331052.7965                   DRN =    11192060.4118     DRN_0           
                 RCH =           0.0000                   RCH =           0.0000     RCH_0           

           TOTAL OUT = 39779940139.7512             TOTAL OUT =    28493358.6305

            IN - OUT =        8988.9669              IN - OUT =          33.4104

 PERCENT DISCREPANCY =           0.00     PERCENT DISCREPANCY =           0.00




         TIME SUMMARY AT END OF TIME STEP    1 IN STRESS PERIOD  638
                          TIME STEP LENGTH =    1.00000    
                        STRESS PERIOD TIME =    1.00000    
                     TOTAL SIMULATION TIME =    638.000    

end timestep


start timestep kper="639" kstp="1" mode="normal"


 OUTPUT CONTROL FOR STRESS PERIOD 639 IS REPEATED USING SETTINGS FROM A PREVIOUS STRESS PERIOD.


 STRESS PERIOD 639 IS TRANSIENT


 REUSING WELS FROM LAST STRESS PERIOD

 REUSING DRNS FROM LAST STRESS PERIOD

 REUSING RCHS FROM LAST STRESS PERIOD


  VOLUME BUDGET FOR ENTIRE MODEL AT END OF TIME STEP    1, STRESS PERIOD 639
  ---------------------------------------------------------------------------------------------------

     CUMULATIVE VOLUME      L**3       RATES FOR THIS TIME STEP      L**3/T          PACKAGE NAME    
     ------------------                 ------------------------                     ----------------

           IN:                                      IN:
           ---                                      ---
              STO-SS =           0.0000                STO-SS =           0.0000     STORAGE         
              STO-SY = 12577935421.8251                STO-SY =    32279479.4538     STORAGE         
                 WEL =           0.0000                   WEL =           0.0000     WEL_0           
                 DRN =           0.0000                   DRN =           0.0000     DRN_0           
                 RCH = 27251994116.9381                   RCH =    17700930.5915     RCH_0           

            TOTAL IN = 39829929538.7633              TOTAL IN =    49980410.0452

          OUT:                                     OUT:
          ----                                     ----
              STO-SS =           0.0000                STO-SS =           0.0000     STORAGE         
              STO-SY =  8701245595.0318                STO-SY =     3124702.4266     STORAGE         
                 WEL =  6915642643.8851                   WEL =    37154449.5356     WEL_0           
                 DRN = 24213032312.2635                   DRN =     9701259.4669     DRN_0           
                 RCH =           0.0000                   RCH =           0.0000     RCH_0           

           TOTAL OUT = 39829920551.1803             TOTAL OUT =    49980411.4292

            IN - OUT =        8987.5829              IN - OUT =          -1.3839

 PERCENT DISCREPANCY =           0.00     PERCENT DISCREPANCY =          -0.00




         TIME SUMMARY AT END OF TIME STEP    1 IN STRESS PERIOD  639
                          TIME STEP LENGTH =    1.00000    
                        STRESS PERIOD TIME =    1.00000    
                     TOTAL SIMULATION TIME =    639.000    

end timestep


start timestep kper="640" kstp="1" mode="normal"


 OUTPUT CONTROL FOR STRESS PERIOD 640 IS REPEATED USING SETTINGS FROM A PREVIOUS STRESS PERIOD.


 STRESS PERIOD 640 IS TRANSIENT


 REUSING WELS FROM LAST STRESS PERIOD

 REUSING DRNS FROM LAST STRESS PERIOD

 REUSING RCHS FROM LAST STRESS PERIOD


  VOLUME BUDGET FOR ENTIRE MODEL AT END OF TIME STEP    1, STRESS PERIOD 640
  ---------------------------------------------------------------------------------------------------

     CUMULATIVE VOLUME      L**3       RATES FOR THIS TIME STEP      L**3/T          PACKAGE NAME    
     ------------------                 ------------------------                     ----------------

           IN:                                      IN:
           ---                                      ---
              STO-SS =           0.0000                STO-SS =           0.0000     STORAGE         
              STO-SY = 12592367365.9842                STO-SY =    14431944.1591     STORAGE         
                 WEL =           0.0000                   WEL =           0.0000     WEL_0           
                 DRN =           0.0000                   DRN =           0.0000     DRN_0           
                 RCH = 27259614917.0941                   RCH =     7620800.1560     RCH_0           

            TOTAL IN = 39851982283.0784              TOTAL IN =    22052744.3151

          OUT:                                     OUT:
          ----                                     ----
              STO-SS =           0.0000                STO-SS =           0.0000     STORAGE         
              STO-SY =  8704802140.3035                STO-SY =     3556545.2718     STORAGE         
                 WEL =  6922572923.9959                   WEL =     6930280.1108     WEL_0           
                 DRN = 24224598230.8820                   DRN =    11565918.6185     DRN_0           
                 RCH =           0.0000                   RCH =           0.0000     RCH_0           

           TOTAL OUT = 39851973295.1814             TOTAL OUT =    22052744.0011

            IN - OUT =        8987.8970              IN - OUT =           0.3140

 PERCENT DISCREPANCY =           0.00     PERCENT DISCREPANCY =           0.00




         TIME SUMMARY AT END OF TIME STEP    1 IN STRESS PERIOD  640
                          TIME STEP LENGTH =    1.00000    
                        STRESS PERIOD TIME =    1.00000    
                     TOTAL SIMULATION TIME =    640.000    

end timestep


start timestep kper="641" kstp="1" mode="normal"


 OUTPUT CONTROL FOR STRESS PERIOD 641 IS REPEATED USING SETTINGS FROM A PREVIOUS STRESS PERIOD.


 STRESS PERIOD 641 IS TRANSIENT


 REUSING WELS FROM LAST STRESS PERIOD

 REUSING DRNS FROM LAST STRESS PERIOD

 REUSING RCHS FROM LAST STRESS PERIOD


  VOLUME BUDGET FOR ENTIRE MODEL AT END OF TIME STEP    1, STRESS PERIOD 641
  ---------------------------------------------------------------------------------------------------

     CUMULATIVE VOLUME      L**3       RATES FOR THIS TIME STEP      L**3/T          PACKAGE NAME    
     ------------------                 ------------------------                     ----------------

           IN:                                      IN:
           ---                                      ---
              STO-SS =           0.0000                STO-SS =           0.0000     STORAGE         
              STO-SY = 12606710499.2007                STO-SY =    14343133.2164     STORAGE         
                 WEL =           0.0000                   WEL =           0.0000     WEL_0           
                 DRN =           0.0000                   DRN =           0.0000     DRN_0           
                 RCH = 27264786889.3013                   RCH =     5171972.2072     RCH_0           

            TOTAL IN = 39871497388.5020              TOTAL IN =    19515105.4236

          OUT:                                     OUT:
          ----                                     ----
              STO-SS =           0.0000                STO-SS =           0.0000     STORAGE         
              STO-SY =  8707816465.8742                STO-SY =     3014325.5707     STORAGE         
                 WEL =  6929306172.1531                   WEL =     6733248.1572     WEL_0           
                 DRN = 24234365807.1863                   DRN =     9767576.3042     DRN_0           
                 RCH =           0.0000                   RCH =           0.0000     RCH_0           

           TOTAL OUT = 39871488445.2135             TOTAL OUT =    19515150.0321

            IN - OUT =        8943.2885              IN - OUT =         -44.6085

 PERCENT DISCREPANCY =           0.00     PERCENT DISCREPANCY =          -0.00




         TIME SUMMARY AT END OF TIME STEP    1 IN STRESS PERIOD  641
                          TIME STEP LENGTH =    1.00000    
                        STRESS PERIOD TIME =    1.00000    
                     TOTAL SIMULATION TIME =    641.000    

end timestep


start timestep kper="642" kstp="1" mode="normal"


 OUTPUT CONTROL FOR STRESS PERIOD 642 IS REPEATED USING SETTINGS FROM A PREVIOUS STRESS PERIOD.


 STRESS PERIOD 642 IS TRANSIENT


 REUSING WELS FROM LAST STRESS PERIOD

 REUSING DRNS FROM LAST STRESS PERIOD

 REUSING RCHS FROM LAST STRESS PERIOD


  VOLUME BUDGET FOR ENTIRE MODEL AT END OF TIME STEP    1, STRESS PERIOD 642
  ---------------------------------------------------------------------------------------------------

     CUMULATIVE VOLUME      L**3       RATES FOR THIS TIME STEP      L**3/T          PACKAGE NAME    
     ------------------                 ------------------------                     ----------------

           IN:                                      IN:
           ---                                      ---
              STO-SS =           0.0000                STO-SS =           0.0000     STORAGE         
              STO-SY = 12621248927.3917                STO-SY =    14538428.1910     STORAGE         
                 WEL =           0.0000                   WEL =           0.0000     WEL_0           
                 DRN =           0.0000                   DRN =           0.0000     DRN_0           
                 RCH = 27272678547.2399                   RCH =     7891657.9386     RCH_0           

            TOTAL IN = 39893927474.6316              TOTAL IN =    22430086.1296

          OUT:                                     OUT:
          ----                                     ----
              STO-SS =           0.0000                STO-SS =           0.0000     STORAGE         
              STO-SY =  8710798260.4188                STO-SY =     2981794.5446     STORAGE         
                 WEL =  6937451460.3776                   WEL =     8145288.2245     WEL_0           
                 DRN = 24245668810.2723                   DRN =    11303003.0860     DRN_0           
                 RCH =           0.0000                   RCH =           0.0000     RCH_0           

           TOTAL OUT = 39893918531.0686             TOTAL OUT =    22430085.8551

            IN - OUT =        8943.5629              IN - OUT =           0.2745

 PERCENT DISCREPANCY =           0.00     PERCENT DISCREPANCY =           0.00




         TIME SUMMARY AT END OF TIME STEP    1 IN STRESS PERIOD  642
                          TIME STEP LENGTH =    1.00000    
                        STRESS PERIOD TIME =    1.00000    
                     TOTAL SIMULATION TIME =    642.000    

end timestep


start timestep kper="643" kstp="1" mode="normal"


 OUTPUT CONTROL FOR STRESS PERIOD 643 IS REPEATED USING SETTINGS FROM A PREVIOUS STRESS PERIOD.


 STRESS PERIOD 643 IS TRANSIENT


 REUSING WELS FROM LAST STRESS PERIOD

 REUSING DRNS FROM LAST STRESS PERIOD

 REUSING RCHS FROM LAST STRESS PERIOD


  VOLUME BUDGET FOR ENTIRE MODEL AT END OF TIME STEP    1, STRESS PERIOD 643
  ---------------------------------------------------------------------------------------------------

     CUMULATIVE VOLUME      L**3       RATES FOR THIS TIME STEP      L**3/T          PACKAGE NAME    
     ------------------                 ------------------------                     ----------------

           IN:                                      IN:
           ---                                      ---
              STO-SS =           0.0000                STO-SS =           0.0000     STORAGE         
              STO-SY = 12635332916.7931                STO-SY =    14083989.4015     STORAGE         
                 WEL =           0.0000                   WEL =           0.0000     WEL_0           
                 DRN =           0.0000                   DRN =           0.0000     DRN_0           
                 RCH = 27278182286.7452                   RCH =     5503739.5053     RCH_0           

            TOTAL IN = 39913515203.5383              TOTAL IN =    19587728.9068

          OUT:                                     OUT:
          ----                                     ----
              STO-SS =           0.0000                STO-SS =           0.0000     STORAGE         
              STO-SY =  8713696376.9889                STO-SY =     2898116.5701     STORAGE         
                 WEL =  6944347004.1864                   WEL =     6895543.8088     WEL_0           
                 DRN = 24255462878.6923                   DRN =     9794068.4200     DRN_0           
                 RCH =           0.0000                   RCH =           0.0000     RCH_0           

           TOTAL OUT = 39913506259.8676             TOTAL OUT =    19587728.7989

            IN - OUT =        8943.6708              IN - OUT =           0.1078

 PERCENT DISCREPANCY =           0.00     PERCENT DISCREPANCY =           0.00




         TIME SUMMARY AT END OF TIME STEP    1 IN STRESS PERIOD  643
                          TIME STEP LENGTH =    1.00000    
                        STRESS PERIOD TIME =    1.00000    
                     TOTAL SIMULATION TIME =    643.000    

end timestep


start timestep kper="644" kstp="1" mode="normal"


 OUTPUT CONTROL FOR STRESS PERIOD 644 IS REPEATED USING SETTINGS FROM A PREVIOUS STRESS PERIOD.


 STRESS PERIOD 644 IS TRANSIENT


 REUSING WELS FROM LAST STRESS PERIOD

 REUSING DRNS FROM LAST STRESS PERIOD

 REUSING RCHS FROM LAST STRESS PERIOD


  VOLUME BUDGET FOR ENTIRE MODEL AT END OF TIME STEP    1, STRESS PERIOD 644
  ---------------------------------------------------------------------------------------------------

     CUMULATIVE VOLUME      L**3       RATES FOR THIS TIME STEP      L**3/T          PACKAGE NAME    
     ------------------                 ------------------------                     ----------------

           IN:                                      IN:
           ---                                      ---
              STO-SS =           0.0000                STO-SS =           0.0000     STORAGE         
              STO-SY = 12651168437.5266                STO-SY =    15835520.7335     STORAGE         
                 WEL =           0.0000                   WEL =           0.0000     WEL_0           
                 DRN =           0.0000                   DRN =           0.0000     DRN_0           
                 RCH = 27287674798.3016                   RCH =     9492511.5564     RCH_0           

            TOTAL IN = 39938843235.8282              TOTAL IN =    25328032.2899

          OUT:                                     OUT:
          ----                                     ----
              STO-SS =           0.0000                STO-SS =           0.0000     STORAGE         
              STO-SY =  8716840616.1721                STO-SY =     3144239.1832     STORAGE         
                 WEL =  6955205136.7777                   WEL =    10858132.5914     WEL_0           
                 DRN = 24266788540.1208                   DRN =    11325661.4285     DRN_0           
                 RCH =           0.0000                   RCH =           0.0000     RCH_0           

           TOTAL OUT = 39938834293.0705             TOTAL OUT =    25328033.2030

            IN - OUT =        8942.7577              IN - OUT =          -0.9131

 PERCENT DISCREPANCY =           0.00     PERCENT DISCREPANCY =          -0.00




         TIME SUMMARY AT END OF TIME STEP    1 IN STRESS PERIOD  644
                          TIME STEP LENGTH =    1.00000    
                        STRESS PERIOD TIME =    1.00000    
                     TOTAL SIMULATION TIME =    644.000    

end timestep


start timestep kper="645" kstp="1" mode="normal"


 OUTPUT CONTROL FOR STRESS PERIOD 645 IS REPEATED USING SETTINGS FROM A PREVIOUS STRESS PERIOD.


 STRESS PERIOD 645 IS TRANSIENT


 REUSING WELS FROM LAST STRESS PERIOD

 REUSING DRNS FROM LAST STRESS PERIOD

 REUSING RCHS FROM LAST STRESS PERIOD


  VOLUME BUDGET FOR ENTIRE MODEL AT END OF TIME STEP    1, STRESS PERIOD 645
  ---------------------------------------------------------------------------------------------------

     CUMULATIVE VOLUME      L**3       RATES FOR THIS TIME STEP      L**3/T          PACKAGE NAME    
     ------------------                 ------------------------                     ----------------

           IN:                                      IN:
           ---                                      ---
              STO-SS =           0.0000                STO-SS =           0.0000     STORAGE         
              STO-SY = 12665234629.7989                STO-SY =    14066192.2723     STORAGE         
                 WEL =           0.0000                   WEL =           0.0000     WEL_0           
                 DRN =           0.0000                   DRN =           0.0000     DRN_0           
                 RCH = 27293332611.5822                   RCH =     5657813.2806     RCH_0           

            TOTAL IN = 39958567241.3810              TOTAL IN =    19724005.5528

          OUT:                                     OUT:
          ----                                     ----
              STO-SS =           0.0000                STO-SS =           0.0000     STORAGE         
              STO-SY =  8719713359.9408                STO-SY =     2872743.7688     STORAGE         
                 WEL =  6962219987.3206                   WEL =     7014850.5429     WEL_0           
                 DRN = 24276624947.5702                   DRN =     9836407.4494     DRN_0           
                 RCH =           0.0000                   RCH =           0.0000     RCH_0           

           TOTAL OUT = 39958558294.8316             TOTAL OUT =    19724001.7611

            IN - OUT =        8946.5494              IN - OUT =           3.7917

 PERCENT DISCREPANCY =           0.00     PERCENT DISCREPANCY =           0.00




         TIME SUMMARY AT END OF TIME STEP    1 IN STRESS PERIOD  645
                          TIME STEP LENGTH =    1.00000    
                        STRESS PERIOD TIME =    1.00000    
                     TOTAL SIMULATION TIME =    645.000    

end timestep


start timestep kper="646" kstp="1" mode="normal"


 OUTPUT CONTROL FOR STRESS PERIOD 646 IS REPEATED USING SETTINGS FROM A PREVIOUS STRESS PERIOD.


 STRESS PERIOD 646 IS TRANSIENT


 REUSING WELS FROM LAST STRESS PERIOD

 REUSING DRNS FROM LAST STRESS PERIOD

 REUSING RCHS FROM LAST STRESS PERIOD


  VOLUME BUDGET FOR ENTIRE MODEL AT END OF TIME STEP    1, STRESS PERIOD 646
  ---------------------------------------------------------------------------------------------------

     CUMULATIVE VOLUME      L**3       RATES FOR THIS TIME STEP      L**3/T          PACKAGE NAME    
     ------------------                 ------------------------                     ----------------

           IN:                                      IN:
           ---                                      ---
              STO-SS =           0.0000                STO-SS =           0.0000     STORAGE         
              STO-SY = 12680021558.9539                STO-SY =    14786929.1551     STORAGE         
                 WEL =           0.0000                   WEL =           0.0000     WEL_0           
                 DRN =           0.0000                   DRN =           0.0000     DRN_0           
                 RCH = 27301354987.6864                   RCH =     8022376.1042     RCH_0           

            TOTAL IN = 39981376546.6403              TOTAL IN =    22809305.2593

          OUT:                                     OUT:
          ----                                     ----
              STO-SS =           0.0000                STO-SS =           0.0000     STORAGE         
              STO-SY =  8722515248.3615                STO-SY =     2801888.4207     STORAGE         
                 WEL =  6971231700.3343                   WEL =     9011713.0136     WEL_0           
                 DRN = 24287620651.1825                   DRN =    10995703.6123     DRN_0           
                 RCH =           0.0000                   RCH =           0.0000     RCH_0           

           TOTAL OUT = 39981367599.8783             TOTAL OUT =    22809305.0467

            IN - OUT =        8946.7620              IN - OUT =           0.2126

 PERCENT DISCREPANCY =           0.00     PERCENT DISCREPANCY =           0.00




         TIME SUMMARY AT END OF TIME STEP    1 IN STRESS PERIOD  646
                          TIME STEP LENGTH =    1.00000    
                        STRESS PERIOD TIME =    1.00000    
                     TOTAL SIMULATION TIME =    646.000    

end timestep


start timestep kper="647" kstp="1" mode="normal"


 OUTPUT CONTROL FOR STRESS PERIOD 647 IS REPEATED USING SETTINGS FROM A PREVIOUS STRESS PERIOD.


 STRESS PERIOD 647 IS TRANSIENT


 REUSING WELS FROM LAST STRESS PERIOD

 REUSING DRNS FROM LAST STRESS PERIOD

 REUSING RCHS FROM LAST STRESS PERIOD


  VOLUME BUDGET FOR ENTIRE MODEL AT END OF TIME STEP    1, STRESS PERIOD 647
  ---------------------------------------------------------------------------------------------------

     CUMULATIVE VOLUME      L**3       RATES FOR THIS TIME STEP      L**3/T          PACKAGE NAME    
     ------------------                 ------------------------                     ----------------

           IN:                                      IN:
           ---                                      ---
              STO-SS =           0.0000                STO-SS =           0.0000     STORAGE         
              STO-SY = 12693478684.9644                STO-SY =    13457126.0105     STORAGE         
                 WEL =           0.0000                   WEL =           0.0000     WEL_0           
                 DRN =           0.0000                   DRN =           0.0000     DRN_0           
                 RCH = 27306382313.6183                   RCH =     5027325.9319     RCH_0           

            TOTAL IN = 39999860998.5827              TOTAL IN =    18484451.9424

          OUT:                                     OUT:
          ----                                     ----
              STO-SS =           0.0000                STO-SS =           0.0000     STORAGE         
              STO-SY =  8725314472.0116                STO-SY =     2799223.6501     STORAGE         
                 WEL =  6977143169.7378                   WEL =     5911469.4036     WEL_0           
                 DRN = 24297394411.6176                   DRN =     9773760.4351     DRN_0           
                 RCH =           0.0000                   RCH =           0.0000     RCH_0           

           TOTAL OUT = 39999852053.3670             TOTAL OUT =    18484453.4887

            IN - OUT =        8945.2157              IN - OUT =          -1.5463

 PERCENT DISCREPANCY =           0.00     PERCENT DISCREPANCY =          -0.00




         TIME SUMMARY AT END OF TIME STEP    1 IN STRESS PERIOD  647
                          TIME STEP LENGTH =    1.00000    
                        STRESS PERIOD TIME =    1.00000    
                     TOTAL SIMULATION TIME =    647.000    

end timestep


start timestep kper="648" kstp="1" mode="normal"


 OUTPUT CONTROL FOR STRESS PERIOD 648 IS REPEATED USING SETTINGS FROM A PREVIOUS STRESS PERIOD.


 STRESS PERIOD 648 IS TRANSIENT


 REUSING WELS FROM LAST STRESS PERIOD

 REUSING DRNS FROM LAST STRESS PERIOD

 REUSING RCHS FROM LAST STRESS PERIOD


  VOLUME BUDGET FOR ENTIRE MODEL AT END OF TIME STEP    1, STRESS PERIOD 648
  ---------------------------------------------------------------------------------------------------

     CUMULATIVE VOLUME      L**3       RATES FOR THIS TIME STEP      L**3/T          PACKAGE NAME    
     ------------------                 ------------------------                     ----------------

           IN:                                      IN:
           ---                                      ---
              STO-SS =           0.0000                STO-SS =           0.0000     STORAGE         
              STO-SY = 12707340969.8231                STO-SY =    13862284.8586     STORAGE         
                 WEL =           0.0000                   WEL =           0.0000     WEL_0           
                 DRN =           0.0000                   DRN =           0.0000     DRN_0           
                 RCH = 27313021696.2973                   RCH =     6639382.6790     RCH_0           

            TOTAL IN = 40020362666.1204              TOTAL IN =    20501667.5377

          OUT:                                     OUT:
          ----                                     ----
              STO-SS =           0.0000                STO-SS =           0.0000     STORAGE         
              STO-SY =  8727925094.7591                STO-SY =     2610622.7475     STORAGE         
                 WEL =  6984200600.7219                   WEL =     7057430.9841     WEL_0           
                 DRN = 24308228026.5013                   DRN =    10833614.8836     DRN_0           
                 RCH =           0.0000                   RCH =           0.0000     RCH_0           

           TOTAL OUT = 40020353721.9823             TOTAL OUT =    20501668.6153

            IN - OUT =        8944.1381              IN - OUT =          -1.0776

 PERCENT DISCREPANCY =           0.00     PERCENT DISCREPANCY =          -0.00




         TIME SUMMARY AT END OF TIME STEP    1 IN STRESS PERIOD  648
                          TIME STEP LENGTH =    1.00000    
                        STRESS PERIOD TIME =    1.00000    
                     TOTAL SIMULATION TIME =    648.000    

end timestep


start timestep kper="649" kstp="1" mode="normal"


 OUTPUT CONTROL FOR STRESS PERIOD 649 IS REPEATED USING SETTINGS FROM A PREVIOUS STRESS PERIOD.


 STRESS PERIOD 649 IS TRANSIENT


 REUSING WELS FROM LAST STRESS PERIOD

 REUSING DRNS FROM LAST STRESS PERIOD

 REUSING RCHS FROM LAST STRESS PERIOD


  VOLUME BUDGET FOR ENTIRE MODEL AT END OF TIME STEP    1, STRESS PERIOD 649
  ---------------------------------------------------------------------------------------------------

     CUMULATIVE VOLUME      L**3       RATES FOR THIS TIME STEP      L**3/T          PACKAGE NAME    
     ------------------                 ------------------------                     ----------------

           IN:                                      IN:
           ---                                      ---
              STO-SS =           0.0000                STO-SS =           0.0000     STORAGE         
              STO-SY = 12723324536.5507                STO-SY =    15983566.7276     STORAGE         
                 WEL =           0.0000                   WEL =           0.0000     WEL_0           
                 DRN =           0.0000                   DRN =           0.0000     DRN_0           
                 RCH = 27320953984.9339                   RCH =     7932288.6365     RCH_0           

            TOTAL IN = 40044278521.4845              TOTAL IN =    23915855.3641

          OUT:                                     OUT:
          ----                                     ----
              STO-SS =           0.0000                STO-SS =           0.0000     STORAGE         
              STO-SY =  8731202722.2861                STO-SY =     3277627.5270     STORAGE         
                 WEL =  6995159106.5284                   WEL =    10958505.8065     WEL_0           
                 DRN = 24317907748.1404                   DRN =     9679721.6392     DRN_0           
                 RCH =           0.0000                   RCH =           0.0000     RCH_0           

           TOTAL OUT = 40044269576.9550             TOTAL OUT =    23915854.9727

            IN - OUT =        8944.5296              IN - OUT =           0.3915

 PERCENT DISCREPANCY =           0.00     PERCENT DISCREPANCY =           0.00




         TIME SUMMARY AT END OF TIME STEP    1 IN STRESS PERIOD  649
                          TIME STEP LENGTH =    1.00000    
                        STRESS PERIOD TIME =    1.00000    
                     TOTAL SIMULATION TIME =    649.000    

end timestep


start timestep kper="650" kstp="1" mode="normal"


 OUTPUT CONTROL FOR STRESS PERIOD 650 IS REPEATED USING SETTINGS FROM A PREVIOUS STRESS PERIOD.


 STRESS PERIOD 650 IS TRANSIENT


 REUSING WELS FROM LAST STRESS PERIOD

 REUSING DRNS FROM LAST STRESS PERIOD

 REUSING RCHS FROM LAST STRESS PERIOD


  VOLUME BUDGET FOR ENTIRE MODEL AT END OF TIME STEP    1, STRESS PERIOD 650
  ---------------------------------------------------------------------------------------------------

     CUMULATIVE VOLUME      L**3       RATES FOR THIS TIME STEP      L**3/T          PACKAGE NAME    
     ------------------                 ------------------------                     ----------------

           IN:                                      IN:
           ---                                      ---
              STO-SS =           0.0000                STO-SS =           0.0000     STORAGE         
              STO-SY = 12738065633.3531                STO-SY =    14741096.8025     STORAGE         
                 WEL =           0.0000                   WEL =           0.0000     WEL_0           
                 DRN =           0.0000                   DRN =           0.0000     DRN_0           
                 RCH = 27327951875.8481                   RCH =     6997890.9142     RCH_0           

            TOTAL IN = 40066017509.2012              TOTAL IN =    21738987.7167

          OUT:                                     OUT:
          ----                                     ----
              STO-SS =           0.0000                STO-SS =           0.0000     STORAGE         
              STO-SY =  8734046992.1380                STO-SY =     2844269.8519     STORAGE         
                 WEL =  7003719677.7981                   WEL =     8560571.2697     WEL_0           
                 DRN = 24328241894.6984                   DRN =    10334146.5580     DRN_0           
                 RCH =           0.0000                   RCH =           0.0000     RCH_0           

           TOTAL OUT = 40066008564.6346             TOTAL OUT =    21738987.6796

            IN - OUT =        8944.5666              IN - OUT =       3.7089E-02

 PERCENT DISCREPANCY =           0.00     PERCENT DISCREPANCY =           0.00




         TIME SUMMARY AT END OF TIME STEP    1 IN STRESS PERIOD  650
                          TIME STEP LENGTH =    1.00000    
                        STRESS PERIOD TIME =    1.00000    
                     TOTAL SIMULATION TIME =    650.000    

end timestep


start timestep kper="651" kstp="1" mode="normal"


 OUTPUT CONTROL FOR STRESS PERIOD 651 IS REPEATED USING SETTINGS FROM A PREVIOUS STRESS PERIOD.


 STRESS PERIOD 651 IS TRANSIENT


 REUSING WELS FROM LAST STRESS PERIOD

 REUSING DRNS FROM LAST STRESS PERIOD

 REUSING RCHS FROM LAST STRESS PERIOD


  VOLUME BUDGET FOR ENTIRE MODEL AT END OF TIME STEP    1, STRESS PERIOD 651
  ---------------------------------------------------------------------------------------------------

     CUMULATIVE VOLUME      L**3       RATES FOR THIS TIME STEP      L**3/T          PACKAGE NAME    
     ------------------                 ------------------------                     ----------------

           IN:                                      IN:
           ---                                      ---
              STO-SS =           0.0000                STO-SS =           0.0000     STORAGE         
              STO-SY = 12755351395.4480                STO-SY =    17285762.0949     STORAGE         
                 WEL =           0.0000                   WEL =           0.0000     WEL_0           
                 DRN =           0.0000                   DRN =           0.0000     DRN_0           
                 RCH = 27336067015.9421                   RCH =     8115140.0940     RCH_0           

            TOTAL IN = 40091418411.3901              TOTAL IN =    25400902.1889

          OUT:                                     OUT:
          ----                                     ----
              STO-SS =           0.0000                STO-SS =           0.0000     STORAGE         
              STO-SY =  8736976642.6675                STO-SY =     2929650.5295     STORAGE         
                 WEL =  7016822377.8852                   WEL =    13102700.0871     WEL_0           
                 DRN = 24337610446.1152                   DRN =     9368551.4168     DRN_0           
                 RCH =           0.0000                   RCH =           0.0000     RCH_0           

           TOTAL OUT = 40091409466.6679             TOTAL OUT =    25400902.0333

            IN - OUT =        8944.7222              IN - OUT =           0.1555

 PERCENT DISCREPANCY =           0.00     PERCENT DISCREPANCY =           0.00




         TIME SUMMARY AT END OF TIME STEP    1 IN STRESS PERIOD  651
                          TIME STEP LENGTH =    1.00000    
                        STRESS PERIOD TIME =    1.00000    
                     TOTAL SIMULATION TIME =    651.000    

end timestep


start timestep kper="652" kstp="1" mode="normal"


 OUTPUT CONTROL FOR STRESS PERIOD 652 IS REPEATED USING SETTINGS FROM A PREVIOUS STRESS PERIOD.


 STRESS PERIOD 652 IS TRANSIENT


 REUSING WELS FROM LAST STRESS PERIOD

 REUSING DRNS FROM LAST STRESS PERIOD

 REUSING RCHS FROM LAST STRESS PERIOD


  VOLUME BUDGET FOR ENTIRE MODEL AT END OF TIME STEP    1, STRESS PERIOD 652
  ---------------------------------------------------------------------------------------------------

     CUMULATIVE VOLUME      L**3       RATES FOR THIS TIME STEP      L**3/T          PACKAGE NAME    
     ------------------                 ------------------------                     ----------------

           IN:                                      IN:
           ---                                      ---
              STO-SS =           0.0000                STO-SS =           0.0000     STORAGE         
              STO-SY = 12770640750.3832                STO-SY =    15289354.9352     STORAGE         
                 WEL =           0.0000                   WEL =           0.0000     WEL_0           
                 DRN =           0.0000                   DRN =           0.0000     DRN_0           
                 RCH = 27342606091.6311                   RCH =     6539075.6891     RCH_0           

            TOTAL IN = 40113246842.0143              TOTAL IN =    21828430.6242

          OUT:                                     OUT:
          ----                                     ----
              STO-SS =           0.0000                STO-SS =           0.0000     STORAGE         
              STO-SY =  8739612354.6014                STO-SY =     2635711.9339     STORAGE         
                 WEL =  7026240260.4989                   WEL =     9417882.6138     WEL_0           
                 DRN = 24347385212.1518                   DRN =     9774766.0366     DRN_0           
                 RCH =           0.0000                   RCH =           0.0000     RCH_0           

           TOTAL OUT = 40113237827.2521             TOTAL OUT =    21828360.5842

            IN - OUT =        9014.7622              IN - OUT =          70.0400

 PERCENT DISCREPANCY =           0.00     PERCENT DISCREPANCY =           0.00




         TIME SUMMARY AT END OF TIME STEP    1 IN STRESS PERIOD  652
                          TIME STEP LENGTH =    1.00000    
                        STRESS PERIOD TIME =    1.00000    
                     TOTAL SIMULATION TIME =    652.000    

end timestep


start timestep kper="653" kstp="1" mode="normal"


 OUTPUT CONTROL FOR STRESS PERIOD 653 IS REPEATED USING SETTINGS FROM A PREVIOUS STRESS PERIOD.


 STRESS PERIOD 653 IS TRANSIENT


 REUSING WELS FROM LAST STRESS PERIOD

 REUSING DRNS FROM LAST STRESS PERIOD

 REUSING RCHS FROM LAST STRESS PERIOD


  VOLUME BUDGET FOR ENTIRE MODEL AT END OF TIME STEP    1, STRESS PERIOD 653
  ---------------------------------------------------------------------------------------------------

     CUMULATIVE VOLUME      L**3       RATES FOR THIS TIME STEP      L**3/T          PACKAGE NAME    
     ------------------                 ------------------------                     ----------------

           IN:                                      IN:
           ---                                      ---
              STO-SS =           0.0000                STO-SS =           0.0000     STORAGE         
              STO-SY = 12784544742.2150                STO-SY =    13903991.8318     STORAGE         
                 WEL =           0.0000                   WEL =           0.0000     WEL_0           
                 DRN =           0.0000                   DRN =           0.0000     DRN_0           
                 RCH = 27347939330.1580                   RCH =     5333238.5268     RCH_0           

            TOTAL IN = 40132484072.3729              TOTAL IN =    19237230.3586

          OUT:                                     OUT:
          ----                                     ----
              STO-SS =           0.0000                STO-SS =           0.0000     STORAGE         
              STO-SY =  8742228724.2238                STO-SY =     2616369.6224     STORAGE         
                 WEL =  7033663864.3831                   WEL =     7423603.8842     WEL_0           
                 DRN = 24356582468.9122                   DRN =     9197256.7604     DRN_0           
                 RCH =           0.0000                   RCH =           0.0000     RCH_0           

           TOTAL OUT = 40132475057.5192             TOTAL OUT =    19237230.2670

            IN - OUT =        9014.8538              IN - OUT =       9.1584E-02

 PERCENT DISCREPANCY =           0.00     PERCENT DISCREPANCY =           0.00




         TIME SUMMARY AT END OF TIME STEP    1 IN STRESS PERIOD  653
                          TIME STEP LENGTH =    1.00000    
                        STRESS PERIOD TIME =    1.00000    
                     TOTAL SIMULATION TIME =    653.000    

end timestep


start timestep kper="654" kstp="1" mode="normal"


 OUTPUT CONTROL FOR STRESS PERIOD 654 IS REPEATED USING SETTINGS FROM A PREVIOUS STRESS PERIOD.


 STRESS PERIOD 654 IS TRANSIENT


 REUSING WELS FROM LAST STRESS PERIOD

 REUSING DRNS FROM LAST STRESS PERIOD

 REUSING RCHS FROM LAST STRESS PERIOD


  VOLUME BUDGET FOR ENTIRE MODEL AT END OF TIME STEP    1, STRESS PERIOD 654
  ---------------------------------------------------------------------------------------------------

     CUMULATIVE VOLUME      L**3       RATES FOR THIS TIME STEP      L**3/T          PACKAGE NAME    
     ------------------                 ------------------------                     ----------------

           IN:                                      IN:
           ---                                      ---
              STO-SS =           0.0000                STO-SS =           0.0000     STORAGE         
              STO-SY = 12795787354.0354                STO-SY =    11242611.8204     STORAGE         
                 WEL =           0.0000                   WEL =           0.0000     WEL_0           
                 DRN =           0.0000                   DRN =           0.0000     DRN_0           
                 RCH = 27358842759.0895                   RCH =    10903428.9315     RCH_0           

            TOTAL IN = 40154630113.1248              TOTAL IN =    22146040.7519

          OUT:                                     OUT:
          ----                                     ----
              STO-SS =           0.0000                STO-SS =           0.0000     STORAGE         
              STO-SY =  8747608745.0218                STO-SY =     5380020.7980     STORAGE         
                 WEL =  7040577705.1453                   WEL =     6913840.7622     WEL_0           
                 DRN = 24366434633.0652                   DRN =     9852164.1530     DRN_0           
                 RCH =           0.0000                   RCH =           0.0000     RCH_0           

           TOTAL OUT = 40154621083.2323             TOTAL OUT =    22146025.7131

            IN - OUT =        9029.8925              IN - OUT =          15.0388

 PERCENT DISCREPANCY =           0.00     PERCENT DISCREPANCY =           0.00




         TIME SUMMARY AT END OF TIME STEP    1 IN STRESS PERIOD  654
                          TIME STEP LENGTH =    1.00000    
                        STRESS PERIOD TIME =    1.00000    
                     TOTAL SIMULATION TIME =    654.000    

end timestep


start timestep kper="655" kstp="1" mode="normal"


 OUTPUT CONTROL FOR STRESS PERIOD 655 IS REPEATED USING SETTINGS FROM A PREVIOUS STRESS PERIOD.


 STRESS PERIOD 655 IS TRANSIENT


 REUSING WELS FROM LAST STRESS PERIOD

 REUSING DRNS FROM LAST STRESS PERIOD

 REUSING RCHS FROM LAST STRESS PERIOD


  VOLUME BUDGET FOR ENTIRE MODEL AT END OF TIME STEP    1, STRESS PERIOD 655
  ---------------------------------------------------------------------------------------------------

     CUMULATIVE VOLUME      L**3       RATES FOR THIS TIME STEP      L**3/T          PACKAGE NAME    
     ------------------                 ------------------------                     ----------------

           IN:                                      IN:
           ---                                      ---
              STO-SS =           0.0000                STO-SS =           0.0000     STORAGE         
              STO-SY = 12811763491.6108                STO-SY =    15976137.5754     STORAGE         
                 WEL =           0.0000                   WEL =           0.0000     WEL_0           
                 DRN =           0.0000                   DRN =           0.0000     DRN_0           
                 RCH = 27367611022.6622                   RCH =     8768263.5727     RCH_0           

            TOTAL IN = 40179374514.2729              TOTAL IN =    24744401.1481

          OUT:                                     OUT:
          ----                                     ----
              STO-SS =           0.0000                STO-SS =           0.0000     STORAGE         
              STO-SY =  8750681351.6018                STO-SY =     3072606.5799     STORAGE         
                 WEL =  7053102279.0134                   WEL =    12524573.8681     WEL_0           
                 DRN = 24375581854.1552                   DRN =     9147221.0900     DRN_0           
                 RCH =           0.0000                   RCH =           0.0000     RCH_0           

           TOTAL OUT = 40179365484.7704             TOTAL OUT =    24744401.5381

            IN - OUT =        9029.5026              IN - OUT =          -0.3900

 PERCENT DISCREPANCY =           0.00     PERCENT DISCREPANCY =          -0.00




         TIME SUMMARY AT END OF TIME STEP    1 IN STRESS PERIOD  655
                          TIME STEP LENGTH =    1.00000    
                        STRESS PERIOD TIME =    1.00000    
                     TOTAL SIMULATION TIME =    655.000    

end timestep


start timestep kper="656" kstp="1" mode="normal"


 OUTPUT CONTROL FOR STRESS PERIOD 656 IS REPEATED USING SETTINGS FROM A PREVIOUS STRESS PERIOD.


 STRESS PERIOD 656 IS TRANSIENT


 REUSING WELS FROM LAST STRESS PERIOD

 REUSING DRNS FROM LAST STRESS PERIOD

 REUSING RCHS FROM LAST STRESS PERIOD


  VOLUME BUDGET FOR ENTIRE MODEL AT END OF TIME STEP    1, STRESS PERIOD 656
  ---------------------------------------------------------------------------------------------------

     CUMULATIVE VOLUME      L**3       RATES FOR THIS TIME STEP      L**3/T          PACKAGE NAME    
     ------------------                 ------------------------                     ----------------

           IN:                                      IN:
           ---                                      ---
              STO-SS =           0.0000                STO-SS =           0.0000     STORAGE         
              STO-SY = 12826689996.2590                STO-SY =    14926504.6483     STORAGE         
                 WEL =           0.0000                   WEL =           0.0000     WEL_0           
                 DRN =           0.0000                   DRN =           0.0000     DRN_0           
                 RCH = 27374772050.3138                   RCH =     7161027.6516     RCH_0           

            TOTAL IN = 40201462046.5728              TOTAL IN =    22087532.2999

          OUT:                                     OUT:
          ----                                     ----
              STO-SS =           0.0000                STO-SS =           0.0000     STORAGE         
              STO-SY =  8753399381.1351                STO-SY =     2718029.5333     STORAGE         
                 WEL =  7062979006.8676                   WEL =     9876727.8542     WEL_0           
                 DRN = 24385074629.0379                   DRN =     9492774.8827     DRN_0           
                 RCH =           0.0000                   RCH =           0.0000     RCH_0           

           TOTAL OUT = 40201453017.0406             TOTAL OUT =    22087532.2703

            IN - OUT =        9029.5322              IN - OUT =       2.9618E-02

 PERCENT DISCREPANCY =           0.00     PERCENT DISCREPANCY =           0.00




         TIME SUMMARY AT END OF TIME STEP    1 IN STRESS PERIOD  656
                          TIME STEP LENGTH =    1.00000    
                        STRESS PERIOD TIME =    1.00000    
                     TOTAL SIMULATION TIME =    656.000    

end timestep


start timestep kper="657" kstp="1" mode="normal"


 OUTPUT CONTROL FOR STRESS PERIOD 657 IS REPEATED USING SETTINGS FROM A PREVIOUS STRESS PERIOD.


 STRESS PERIOD 657 IS TRANSIENT


 REUSING WELS FROM LAST STRESS PERIOD

 REUSING DRNS FROM LAST STRESS PERIOD

 REUSING RCHS FROM LAST STRESS PERIOD


  VOLUME BUDGET FOR ENTIRE MODEL AT END OF TIME STEP    1, STRESS PERIOD 657
  ---------------------------------------------------------------------------------------------------

     CUMULATIVE VOLUME      L**3       RATES FOR THIS TIME STEP      L**3/T          PACKAGE NAME    
     ------------------                 ------------------------                     ----------------

           IN:                                      IN:
           ---                                      ---
              STO-SS =           0.0000                STO-SS =           0.0000     STORAGE         
              STO-SY = 12844729873.1263                STO-SY =    18039876.8672     STORAGE         
                 WEL =           0.0000                   WEL =           0.0000     WEL_0           
                 DRN =           0.0000                   DRN =           0.0000     DRN_0           
                 RCH = 27383472571.2822                   RCH =     8700520.9684     RCH_0           

            TOTAL IN = 40228202444.4085              TOTAL IN =    26740397.8357

          OUT:                                     OUT:
          ----                                     ----
              STO-SS =           0.0000                STO-SS =           0.0000     STORAGE         
              STO-SY =  8756057308.9853                STO-SY =     2657927.8502     STORAGE         
                 WEL =  7078098112.5374                   WEL =    15119105.6697     WEL_0           
                 DRN = 24394038020.8546                   DRN =     8963391.8167     DRN_0           
                 RCH =           0.0000                   RCH =           0.0000     RCH_0           

           TOTAL OUT = 40228193442.3772             TOTAL OUT =    26740425.3366

            IN - OUT =        9002.0313              IN - OUT =         -27.5009

 PERCENT DISCREPANCY =           0.00     PERCENT DISCREPANCY =          -0.00




         TIME SUMMARY AT END OF TIME STEP    1 IN STRESS PERIOD  657
                          TIME STEP LENGTH =    1.00000    
                        STRESS PERIOD TIME =    1.00000    
                     TOTAL SIMULATION TIME =    657.000    

end timestep


start timestep kper="658" kstp="1" mode="normal"


 OUTPUT CONTROL FOR STRESS PERIOD 658 IS REPEATED USING SETTINGS FROM A PREVIOUS STRESS PERIOD.


 STRESS PERIOD 658 IS TRANSIENT


 REUSING WELS FROM LAST STRESS PERIOD

 REUSING DRNS FROM LAST STRESS PERIOD

 REUSING RCHS FROM LAST STRESS PERIOD


  VOLUME BUDGET FOR ENTIRE MODEL AT END OF TIME STEP    1, STRESS PERIOD 658
  ---------------------------------------------------------------------------------------------------

     CUMULATIVE VOLUME      L**3       RATES FOR THIS TIME STEP      L**3/T          PACKAGE NAME    
     ------------------                 ------------------------                     ----------------

           IN:                                      IN:
           ---                                      ---
              STO-SS =           0.0000                STO-SS =           0.0000     STORAGE         
              STO-SY = 12867033307.2235                STO-SY =    22303434.0972     STORAGE         
                 WEL =           0.0000                   WEL =           0.0000     WEL_0           
                 DRN =           0.0000                   DRN =           0.0000     DRN_0           
                 RCH = 27395177328.7599                   RCH =    11704757.4777     RCH_0           

            TOTAL IN = 40262210635.9834              TOTAL IN =    34008191.5749

          OUT:                                     OUT:
          ----                                     ----
              STO-SS =           0.0000                STO-SS =           0.0000     STORAGE         
              STO-SY =  8758900101.2618                STO-SY =     2842792.2766     STORAGE         
                 WEL =  7100115627.7596                   WEL =    22017515.2222     WEL_0           
                 DRN = 24403185892.5928                   DRN =     9147871.7381     DRN_0           
                 RCH =           0.0000                   RCH =           0.0000     RCH_0           

           TOTAL OUT = 40262201621.6141             TOTAL OUT =    34008179.2369

            IN - OUT =        9014.3693              IN - OUT =          12.3380

 PERCENT DISCREPANCY =           0.00     PERCENT DISCREPANCY =           0.00




         TIME SUMMARY AT END OF TIME STEP    1 IN STRESS PERIOD  658
                          TIME STEP LENGTH =    1.00000    
                        STRESS PERIOD TIME =    1.00000    
                     TOTAL SIMULATION TIME =    658.000    

end timestep


start timestep kper="659" kstp="1" mode="normal"


 OUTPUT CONTROL FOR STRESS PERIOD 659 IS REPEATED USING SETTINGS FROM A PREVIOUS STRESS PERIOD.


 STRESS PERIOD 659 IS TRANSIENT


 REUSING WELS FROM LAST STRESS PERIOD

 REUSING DRNS FROM LAST STRESS PERIOD

 REUSING RCHS FROM LAST STRESS PERIOD


  VOLUME BUDGET FOR ENTIRE MODEL AT END OF TIME STEP    1, STRESS PERIOD 659
  ---------------------------------------------------------------------------------------------------

     CUMULATIVE VOLUME      L**3       RATES FOR THIS TIME STEP      L**3/T          PACKAGE NAME    
     ------------------                 ------------------------                     ----------------

           IN:                                      IN:
           ---                                      ---
              STO-SS =           0.0000                STO-SS =           0.0000     STORAGE         
              STO-SY = 12886963451.8198                STO-SY =    19930144.5963     STORAGE         
                 WEL =           0.0000                   WEL =           0.0000     WEL_0           
                 DRN =           0.0000                   DRN =           0.0000     DRN_0           
                 RCH = 27404685514.5157                   RCH =     9508185.7558     RCH_0           

            TOTAL IN = 40291648966.3355              TOTAL IN =    29438330.3520

          OUT:                                     OUT:
          ----                                     ----
              STO-SS =           0.0000                STO-SS =           0.0000     STORAGE         
              STO-SY =  8761242080.4937                STO-SY =     2341979.2318     STORAGE         
                 WEL =  7118721104.4361                   WEL =    18605476.6766     WEL_0           
                 DRN = 24411676767.4579                   DRN =     8490874.8652     DRN_0           
                 RCH =           0.0000                   RCH =           0.0000     RCH_0           

           TOTAL OUT = 40291639952.3877             TOTAL OUT =    29438330.7736

            IN - OUT =        9013.9478              IN - OUT =          -0.4215

 PERCENT DISCREPANCY =           0.00     PERCENT DISCREPANCY =          -0.00




         TIME SUMMARY AT END OF TIME STEP    1 IN STRESS PERIOD  659
                          TIME STEP LENGTH =    1.00000    
                        STRESS PERIOD TIME =    1.00000    
                     TOTAL SIMULATION TIME =    659.000    

end timestep


start timestep kper="660" kstp="1" mode="normal"


 OUTPUT CONTROL FOR STRESS PERIOD 660 IS REPEATED USING SETTINGS FROM A PREVIOUS STRESS PERIOD.


 STRESS PERIOD 660 IS TRANSIENT


 REUSING WELS FROM LAST STRESS PERIOD

 REUSING DRNS FROM LAST STRESS PERIOD

 REUSING RCHS FROM LAST STRESS PERIOD


  VOLUME BUDGET FOR ENTIRE MODEL AT END OF TIME STEP    1, STRESS PERIOD 660
  ---------------------------------------------------------------------------------------------------

     CUMULATIVE VOLUME      L**3       RATES FOR THIS TIME STEP      L**3/T          PACKAGE NAME    
     ------------------                 ------------------------                     ----------------

           IN:                                      IN:
           ---                                      ---
              STO-SS =           0.0000                STO-SS =           0.0000     STORAGE         
              STO-SY = 12901000348.2366                STO-SY =    14036896.4168     STORAGE         
                 WEL =           0.0000                   WEL =           0.0000     WEL_0           
                 DRN =           0.0000                   DRN =           0.0000     DRN_0           
                 RCH = 27410876527.2547                   RCH =     6191012.7390     RCH_0           

            TOTAL IN = 40311876875.4913              TOTAL IN =    20227909.1558

          OUT:                                     OUT:
          ----                                     ----
              STO-SS =           0.0000                STO-SS =           0.0000     STORAGE         
              STO-SY =  8763838967.8840                STO-SY =     2596887.3903     STORAGE         
                 WEL =  7127572405.3888                   WEL =     8851300.9526     WEL_0           
                 DRN = 24420456480.2648                   DRN =     8779712.8069     DRN_0           
                 RCH =           0.0000                   RCH =           0.0000     RCH_0           

           TOTAL OUT = 40311867853.5376             TOTAL OUT =    20227901.1499

            IN - OUT =        9021.9537              IN - OUT =           8.0059

 PERCENT DISCREPANCY =           0.00     PERCENT DISCREPANCY =           0.00




         TIME SUMMARY AT END OF TIME STEP    1 IN STRESS PERIOD  660
                          TIME STEP LENGTH =    1.00000    
                        STRESS PERIOD TIME =    1.00000    
                     TOTAL SIMULATION TIME =    660.000    

end timestep


start timestep kper="661" kstp="1" mode="normal"


 OUTPUT CONTROL FOR STRESS PERIOD 661 IS REPEATED USING SETTINGS FROM A PREVIOUS STRESS PERIOD.


 STRESS PERIOD 661 IS TRANSIENT


 REUSING WELS FROM LAST STRESS PERIOD

 REUSING DRNS FROM LAST STRESS PERIOD

 REUSING RCHS FROM LAST STRESS PERIOD


  VOLUME BUDGET FOR ENTIRE MODEL AT END OF TIME STEP    1, STRESS PERIOD 661
  ---------------------------------------------------------------------------------------------------

     CUMULATIVE VOLUME      L**3       RATES FOR THIS TIME STEP      L**3/T          PACKAGE NAME    
     ------------------                 ------------------------                     ----------------

           IN:                                      IN:
           ---                                      ---
              STO-SS =           0.0000                STO-SS =           0.0000     STORAGE         
              STO-SY = 12917523729.9554                STO-SY =    16523381.7188     STORAGE         
                 WEL =           0.0000                   WEL =           0.0000     WEL_0           
                 DRN =           0.0000                   DRN =           0.0000     DRN_0           
                 RCH = 27417877288.7504                   RCH =     7000761.4958     RCH_0           

            TOTAL IN = 40335401018.7058              TOTAL IN =    23524143.2146

          OUT:                                     OUT:
          ----                                     ----
              STO-SS =           0.0000                STO-SS =           0.0000     STORAGE         
              STO-SY =  8766066928.6852                STO-SY =     2227960.8012     STORAGE         
                 WEL =  7140541930.5108                   WEL =    12969525.1221     WEL_0           
                 DRN = 24428783137.3058                   DRN =     8326657.0409     DRN_0           
                 RCH =           0.0000                   RCH =           0.0000     RCH_0           

           TOTAL OUT = 40335391996.5018             TOTAL OUT =    23524142.9642

            IN - OUT =        9022.2040              IN - OUT =           0.2503

 PERCENT DISCREPANCY =           0.00     PERCENT DISCREPANCY =           0.00




         TIME SUMMARY AT END OF TIME STEP    1 IN STRESS PERIOD  661
                          TIME STEP LENGTH =    1.00000    
                        STRESS PERIOD TIME =    1.00000    
                     TOTAL SIMULATION TIME =    661.000    

end timestep


start timestep kper="662" kstp="1" mode="normal"


 OUTPUT CONTROL FOR STRESS PERIOD 662 IS REPEATED USING SETTINGS FROM A PREVIOUS STRESS PERIOD.


 STRESS PERIOD 662 IS TRANSIENT


 REUSING WELS FROM LAST STRESS PERIOD

 REUSING DRNS FROM LAST STRESS PERIOD

 REUSING RCHS FROM LAST STRESS PERIOD


  VOLUME BUDGET FOR ENTIRE MODEL AT END OF TIME STEP    1, STRESS PERIOD 662
  ---------------------------------------------------------------------------------------------------

     CUMULATIVE VOLUME      L**3       RATES FOR THIS TIME STEP      L**3/T          PACKAGE NAME    
     ------------------                 ------------------------                     ----------------

           IN:                                      IN:
           ---                                      ---
              STO-SS =           0.0000                STO-SS =           0.0000     STORAGE         
              STO-SY = 12931695725.8695                STO-SY =    14171995.9141     STORAGE         
                 WEL =           0.0000                   WEL =           0.0000     WEL_0           
                 DRN =           0.0000                   DRN =           0.0000     DRN_0           
                 RCH = 27424253532.9320                   RCH =     6376244.1815     RCH_0           

            TOTAL IN = 40355949258.8015              TOTAL IN =    20548240.0956

          OUT:                                     OUT:
          ----                                     ----
              STO-SS =           0.0000                STO-SS =           0.0000     STORAGE         
              STO-SY =  8768562734.4291                STO-SY =     2495805.7439     STORAGE         
                 WEL =  7149896094.6316                   WEL =     9354164.1208     WEL_0           
                 DRN = 24437481404.2295                   DRN =     8698266.9237     DRN_0           
                 RCH =           0.0000                   RCH =           0.0000     RCH_0           

           TOTAL OUT = 40355940233.2902             TOTAL OUT =    20548236.7884

            IN - OUT =        9025.5112              IN - OUT =           3.3072

 PERCENT DISCREPANCY =           0.00     PERCENT DISCREPANCY =           0.00




         TIME SUMMARY AT END OF TIME STEP    1 IN STRESS PERIOD  662
                          TIME STEP LENGTH =    1.00000    
                        STRESS PERIOD TIME =    1.00000    
                     TOTAL SIMULATION TIME =    662.000    

end timestep


start timestep kper="663" kstp="1" mode="normal"


 OUTPUT CONTROL FOR STRESS PERIOD 663 IS REPEATED USING SETTINGS FROM A PREVIOUS STRESS PERIOD.


 STRESS PERIOD 663 IS TRANSIENT


 REUSING WELS FROM LAST STRESS PERIOD

 REUSING DRNS FROM LAST STRESS PERIOD

 REUSING RCHS FROM LAST STRESS PERIOD


  VOLUME BUDGET FOR ENTIRE MODEL AT END OF TIME STEP    1, STRESS PERIOD 663
  ---------------------------------------------------------------------------------------------------

     CUMULATIVE VOLUME      L**3       RATES FOR THIS TIME STEP      L**3/T          PACKAGE NAME    
     ------------------                 ------------------------                     ----------------

           IN:                                      IN:
           ---                                      ---
              STO-SS =           0.0000                STO-SS =           0.0000     STORAGE         
              STO-SY = 12945538075.6872                STO-SY =    13842349.8177     STORAGE         
                 WEL =           0.0000                   WEL =           0.0000     WEL_0           
                 DRN =           0.0000                   DRN =           0.0000     DRN_0           
                 RCH = 27429921173.2212                   RCH =     5667640.2892     RCH_0           

            TOTAL IN = 40375459248.9084              TOTAL IN =    19509990.1069

          OUT:                                     OUT:
          ----                                     ----
              STO-SS =           0.0000                STO-SS =           0.0000     STORAGE         
              STO-SY =  8770864999.6562                STO-SY =     2302265.2271     STORAGE         
                 WEL =  7158736604.6970                   WEL =     8840510.0654     WEL_0           
                 DRN = 24445848619.0564                   DRN =     8367214.8270     DRN_0           
                 RCH =           0.0000                   RCH =           0.0000     RCH_0           

           TOTAL OUT = 40375450223.4097             TOTAL OUT =    19509990.1195

            IN - OUT =        9025.4987              IN - OUT =      -1.2533E-02

 PERCENT DISCREPANCY =           0.00     PERCENT DISCREPANCY =          -0.00




         TIME SUMMARY AT END OF TIME STEP    1 IN STRESS PERIOD  663
                          TIME STEP LENGTH =    1.00000    
                        STRESS PERIOD TIME =    1.00000    
                     TOTAL SIMULATION TIME =    663.000    

end timestep


start timestep kper="664" kstp="1" mode="normal"


 OUTPUT CONTROL FOR STRESS PERIOD 664 IS REPEATED USING SETTINGS FROM A PREVIOUS STRESS PERIOD.


 STRESS PERIOD 664 IS TRANSIENT


 REUSING WELS FROM LAST STRESS PERIOD

 REUSING DRNS FROM LAST STRESS PERIOD

 REUSING RCHS FROM LAST STRESS PERIOD


  VOLUME BUDGET FOR ENTIRE MODEL AT END OF TIME STEP    1, STRESS PERIOD 664
  ---------------------------------------------------------------------------------------------------

     CUMULATIVE VOLUME      L**3       RATES FOR THIS TIME STEP      L**3/T          PACKAGE NAME    
     ------------------                 ------------------------                     ----------------

           IN:                                      IN:
           ---                                      ---
              STO-SS =           0.0000                STO-SS =           0.0000     STORAGE         
              STO-SY = 12959099677.6025                STO-SY =    13561601.9153     STORAGE         
                 WEL =           0.0000                   WEL =           0.0000     WEL_0           
                 DRN =           0.0000                   DRN =           0.0000     DRN_0           
                 RCH = 27436247955.3845                   RCH =     6326782.1633     RCH_0           

            TOTAL IN = 40395347632.9870              TOTAL IN =    19888384.0786

          OUT:                                     OUT:
          ----                                     ----
              STO-SS =           0.0000                STO-SS =           0.0000     STORAGE         
              STO-SY =  8773299628.7813                STO-SY =     2434629.1251     STORAGE         
                 WEL =  7167542192.0486                   WEL =     8805587.3516     WEL_0           
                 DRN = 24454496776.8786                   DRN =     8648157.8222     DRN_0           
                 RCH =           0.0000                   RCH =           0.0000     RCH_0           

           TOTAL OUT = 40395338597.7085             TOTAL OUT =    19888374.2989

            IN - OUT =        9035.2785              IN - OUT =           9.7798

 PERCENT DISCREPANCY =           0.00     PERCENT DISCREPANCY =           0.00




         TIME SUMMARY AT END OF TIME STEP    1 IN STRESS PERIOD  664
                          TIME STEP LENGTH =    1.00000    
                        STRESS PERIOD TIME =    1.00000    
                     TOTAL SIMULATION TIME =    664.000    

end timestep


start timestep kper="665" kstp="1" mode="normal"


 OUTPUT CONTROL FOR STRESS PERIOD 665 IS REPEATED USING SETTINGS FROM A PREVIOUS STRESS PERIOD.


 STRESS PERIOD 665 IS TRANSIENT


 REUSING WELS FROM LAST STRESS PERIOD

 REUSING DRNS FROM LAST STRESS PERIOD

 REUSING RCHS FROM LAST STRESS PERIOD


  VOLUME BUDGET FOR ENTIRE MODEL AT END OF TIME STEP    1, STRESS PERIOD 665
  ---------------------------------------------------------------------------------------------------

     CUMULATIVE VOLUME      L**3       RATES FOR THIS TIME STEP      L**3/T          PACKAGE NAME    
     ------------------                 ------------------------                     ----------------

           IN:                                      IN:
           ---                                      ---
              STO-SS =           0.0000                STO-SS =           0.0000     STORAGE         
              STO-SY = 12982259330.5163                STO-SY =    23159652.9138     STORAGE         
                 WEL =           0.0000                   WEL =           0.0000     WEL_0           
                 DRN =           0.0000                   DRN =           0.0000     DRN_0           
                 RCH = 27445344278.9269                   RCH =     9096323.5423     RCH_0           

            TOTAL IN = 40427603609.4431              TOTAL IN =    32255976.4561

          OUT:                                     OUT:
          ----                                     ----
              STO-SS =           0.0000                STO-SS =           0.0000     STORAGE         
              STO-SY =  8775225014.8338                STO-SY =     1925386.0525     STORAGE         
                 WEL =  7189747633.3253                   WEL =    22205441.2767     WEL_0           
                 DRN = 24462621925.9246                   DRN =     8125149.0460     DRN_0           
                 RCH =           0.0000                   RCH =           0.0000     RCH_0           

           TOTAL OUT = 40427594574.0838             TOTAL OUT =    32255976.3752

            IN - OUT =        9035.3594              IN - OUT =       8.0873E-02

 PERCENT DISCREPANCY =           0.00     PERCENT DISCREPANCY =           0.00




         TIME SUMMARY AT END OF TIME STEP    1 IN STRESS PERIOD  665
                          TIME STEP LENGTH =    1.00000    
                        STRESS PERIOD TIME =    1.00000    
                     TOTAL SIMULATION TIME =    665.000    

end timestep


start timestep kper="666" kstp="1" mode="normal"


 OUTPUT CONTROL FOR STRESS PERIOD 666 IS REPEATED USING SETTINGS FROM A PREVIOUS STRESS PERIOD.


 STRESS PERIOD 666 IS TRANSIENT


 REUSING WELS FROM LAST STRESS PERIOD

 REUSING DRNS FROM LAST STRESS PERIOD

 REUSING RCHS FROM LAST STRESS PERIOD


  VOLUME BUDGET FOR ENTIRE MODEL AT END OF TIME STEP    1, STRESS PERIOD 666
  ---------------------------------------------------------------------------------------------------

     CUMULATIVE VOLUME      L**3       RATES FOR THIS TIME STEP      L**3/T          PACKAGE NAME    
     ------------------                 ------------------------                     ----------------

           IN:                                      IN:
           ---                                      ---
              STO-SS =           0.0000                STO-SS =           0.0000     STORAGE         
              STO-SY = 13003001588.5665                STO-SY =    20742258.0503     STORAGE         
                 WEL =           0.0000                   WEL =           0.0000     WEL_0           
                 DRN =           0.0000                   DRN =           0.0000     DRN_0           
                 RCH = 27455736055.9731                   RCH =    10391777.0462     RCH_0           

            TOTAL IN = 40458737644.5396              TOTAL IN =    31134035.0965

          OUT:                                     OUT:
          ----                                     ----
              STO-SS =           0.0000                STO-SS =           0.0000     STORAGE         
              STO-SY =  8777750000.8256                STO-SY =     2524985.9918     STORAGE         
                 WEL =  7209959688.5086                   WEL =    20212055.1833     WEL_0           
                 DRN = 24471018917.0333                   DRN =     8396991.1088     DRN_0           
                 RCH =           0.0000                   RCH =           0.0000     RCH_0           

           TOTAL OUT = 40458728606.3676             TOTAL OUT =    31134032.2838

            IN - OUT =        9038.1720              IN - OUT =           2.8127

 PERCENT DISCREPANCY =           0.00     PERCENT DISCREPANCY =           0.00




         TIME SUMMARY AT END OF TIME STEP    1 IN STRESS PERIOD  666
                          TIME STEP LENGTH =    1.00000    
                        STRESS PERIOD TIME =    1.00000    
                     TOTAL SIMULATION TIME =    666.000    

end timestep


start timestep kper="667" kstp="1" mode="normal"


 OUTPUT CONTROL FOR STRESS PERIOD 667 IS REPEATED USING SETTINGS FROM A PREVIOUS STRESS PERIOD.


 STRESS PERIOD 667 IS TRANSIENT


 REUSING WELS FROM LAST STRESS PERIOD

 REUSING DRNS FROM LAST STRESS PERIOD

 REUSING RCHS FROM LAST STRESS PERIOD


  VOLUME BUDGET FOR ENTIRE MODEL AT END OF TIME STEP    1, STRESS PERIOD 667
  ---------------------------------------------------------------------------------------------------

     CUMULATIVE VOLUME      L**3       RATES FOR THIS TIME STEP      L**3/T          PACKAGE NAME    
     ------------------                 ------------------------                     ----------------

           IN:                                      IN:
           ---                                      ---
              STO-SS =           0.0000                STO-SS =           0.0000     STORAGE         
              STO-SY = 13021779978.2186                STO-SY =    18778389.6521     STORAGE         
                 WEL =           0.0000                   WEL =           0.0000     WEL_0           
                 DRN =           0.0000                   DRN =           0.0000     DRN_0           
                 RCH = 27463306824.9202                   RCH =     7570768.9471     RCH_0           

            TOTAL IN = 40485086803.1389              TOTAL IN =    26349158.5992

          OUT:                                     OUT:
          ----                                     ----
              STO-SS =           0.0000                STO-SS =           0.0000     STORAGE         
              STO-SY =  8779934524.4770                STO-SY =     2184523.6513     STORAGE         
                 WEL =  7226077229.4958                   WEL =    16117540.9872     WEL_0           
                 DRN = 24479066011.2389                   DRN =     8047094.2056     DRN_0           
                 RCH =           0.0000                   RCH =           0.0000     RCH_0           

           TOTAL OUT = 40485077765.2117             TOTAL OUT =    26349158.8441

            IN - OUT =        9037.9271              IN - OUT =          -0.2449

 PERCENT DISCREPANCY =           0.00     PERCENT DISCREPANCY =          -0.00




         TIME SUMMARY AT END OF TIME STEP    1 IN STRESS PERIOD  667
                          TIME STEP LENGTH =    1.00000    
                        STRESS PERIOD TIME =    1.00000    
                     TOTAL SIMULATION TIME =    667.000    

end timestep


start timestep kper="668" kstp="1" mode="normal"


 OUTPUT CONTROL FOR STRESS PERIOD 668 IS REPEATED USING SETTINGS FROM A PREVIOUS STRESS PERIOD.


 STRESS PERIOD 668 IS TRANSIENT


 REUSING WELS FROM LAST STRESS PERIOD

 REUSING DRNS FROM LAST STRESS PERIOD

 REUSING RCHS FROM LAST STRESS PERIOD


  VOLUME BUDGET FOR ENTIRE MODEL AT END OF TIME STEP    1, STRESS PERIOD 668
  ---------------------------------------------------------------------------------------------------

     CUMULATIVE VOLUME      L**3       RATES FOR THIS TIME STEP      L**3/T          PACKAGE NAME    
     ------------------                 ------------------------                     ----------------

           IN:                                      IN:
           ---                                      ---
              STO-SS =           0.0000                STO-SS =           0.0000     STORAGE         
              STO-SY = 13044352265.5004                STO-SY =    22572287.2818     STORAGE         
                 WEL =           0.0000                   WEL =           0.0000     WEL_0           
                 DRN =           0.0000                   DRN =           0.0000     DRN_0           
                 RCH = 27473779691.3648                   RCH =    10472866.4445     RCH_0           

            TOTAL IN = 40518131956.8652              TOTAL IN =    33045153.7263

          OUT:                                     OUT:
          ----                                     ----
              STO-SS =           0.0000                STO-SS =           0.0000     STORAGE         
              STO-SY =  8782109514.2006                STO-SY =     2174989.7237     STORAGE         
                 WEL =  7248663202.6192                   WEL =    22585973.1233     WEL_0           
                 DRN = 24487350231.9428                   DRN =     8284220.7039     DRN_0           
                 RCH =           0.0000                   RCH =           0.0000     RCH_0           

           TOTAL OUT = 40518122948.7626             TOTAL OUT =    33045183.5509

            IN - OUT =        9008.1026              IN - OUT =         -29.8245

 PERCENT DISCREPANCY =           0.00     PERCENT DISCREPANCY =          -0.00




         TIME SUMMARY AT END OF TIME STEP    1 IN STRESS PERIOD  668
                          TIME STEP LENGTH =    1.00000    
                        STRESS PERIOD TIME =    1.00000    
                     TOTAL SIMULATION TIME =    668.000    

end timestep


start timestep kper="669" kstp="1" mode="normal"


 OUTPUT CONTROL FOR STRESS PERIOD 669 IS REPEATED USING SETTINGS FROM A PREVIOUS STRESS PERIOD.


 STRESS PERIOD 669 IS TRANSIENT


 REUSING WELS FROM LAST STRESS PERIOD

 REUSING DRNS FROM LAST STRESS PERIOD

 REUSING RCHS FROM LAST STRESS PERIOD


  VOLUME BUDGET FOR ENTIRE MODEL AT END OF TIME STEP    1, STRESS PERIOD 669
  ---------------------------------------------------------------------------------------------------

     CUMULATIVE VOLUME      L**3       RATES FOR THIS TIME STEP      L**3/T          PACKAGE NAME    
     ------------------                 ------------------------                     ----------------

           IN:                                      IN:
           ---                                      ---
              STO-SS =           0.0000                STO-SS =           0.0000     STORAGE         
              STO-SY = 13061469631.9680                STO-SY =    17117366.4676     STORAGE         
                 WEL =           0.0000                   WEL =           0.0000     WEL_0           
                 DRN =           0.0000                   DRN =           0.0000     DRN_0           
                 RCH = 27481395360.1326                   RCH =     7615668.7678     RCH_0           

            TOTAL IN = 40542864992.1006              TOTAL IN =    24733035.2354

          OUT:                                     OUT:
          ----                                     ----
              STO-SS =           0.0000                STO-SS =           0.0000     STORAGE         
              STO-SY =  8784479974.3669                STO-SY =     2370460.1663     STORAGE         
                 WEL =  7263167914.3674                   WEL =    14504711.7483     WEL_0           
                 DRN = 24495208083.3428                   DRN =     7857851.4000     DRN_0           
                 RCH =           0.0000                   RCH =           0.0000     RCH_0           

           TOTAL OUT = 40542855972.0772             TOTAL OUT =    24733023.3146

            IN - OUT =        9020.0234              IN - OUT =          11.9208

 PERCENT DISCREPANCY =           0.00     PERCENT DISCREPANCY =           0.00




         TIME SUMMARY AT END OF TIME STEP    1 IN STRESS PERIOD  669
                          TIME STEP LENGTH =    1.00000    
                        STRESS PERIOD TIME =    1.00000    
                     TOTAL SIMULATION TIME =    669.000    

end timestep


start timestep kper="670" kstp="1" mode="normal"


 OUTPUT CONTROL FOR STRESS PERIOD 670 IS REPEATED USING SETTINGS FROM A PREVIOUS STRESS PERIOD.


 STRESS PERIOD 670 IS TRANSIENT


 REUSING WELS FROM LAST STRESS PERIOD

 REUSING DRNS FROM LAST STRESS PERIOD

 REUSING RCHS FROM LAST STRESS PERIOD


  VOLUME BUDGET FOR ENTIRE MODEL AT END OF TIME STEP    1, STRESS PERIOD 670
  ---------------------------------------------------------------------------------------------------

     CUMULATIVE VOLUME      L**3       RATES FOR THIS TIME STEP      L**3/T          PACKAGE NAME    
     ------------------                 ------------------------                     ----------------

           IN:                                      IN:
           ---                                      ---
              STO-SS =           0.0000                STO-SS =           0.0000     STORAGE         
              STO-SY = 13077328841.5772                STO-SY =    15859209.6092     STORAGE         
                 WEL =           0.0000                   WEL =           0.0000     WEL_0           
                 DRN =           0.0000                   DRN =           0.0000     DRN_0           
                 RCH = 27488574710.0855                   RCH =     7179349.9530     RCH_0           

            TOTAL IN = 40565903551.6627              TOTAL IN =    23038559.5621

          OUT:                                     OUT:
          ----                                     ----
              STO-SS =           0.0000                STO-SS =           0.0000     STORAGE         
              STO-SY =  8786847609.7854                STO-SY =     2367635.4185     STORAGE         
                 WEL =  7275715593.8696                   WEL =    12547679.5022     WEL_0           
                 DRN = 24503331323.4783                   DRN =     8123240.1355     DRN_0           
                 RCH =           0.0000                   RCH =           0.0000     RCH_0           

           TOTAL OUT = 40565894527.1333             TOTAL OUT =    23038555.0562

            IN - OUT =        9024.5294              IN - OUT =           4.5060

 PERCENT DISCREPANCY =           0.00     PERCENT DISCREPANCY =           0.00




         TIME SUMMARY AT END OF TIME STEP    1 IN STRESS PERIOD  670
                          TIME STEP LENGTH =    1.00000    
                        STRESS PERIOD TIME =    1.00000    
                     TOTAL SIMULATION TIME =    670.000    

end timestep


start timestep kper="671" kstp="1" mode="normal"


 OUTPUT CONTROL FOR STRESS PERIOD 671 IS REPEATED USING SETTINGS FROM A PREVIOUS STRESS PERIOD.


 STRESS PERIOD 671 IS TRANSIENT


 REUSING WELS FROM LAST STRESS PERIOD

 REUSING DRNS FROM LAST STRESS PERIOD

 REUSING RCHS FROM LAST STRESS PERIOD


  VOLUME BUDGET FOR ENTIRE MODEL AT END OF TIME STEP    1, STRESS PERIOD 671
  ---------------------------------------------------------------------------------------------------

     CUMULATIVE VOLUME      L**3       RATES FOR THIS TIME STEP      L**3/T          PACKAGE NAME    
     ------------------                 ------------------------                     ----------------

           IN:                                      IN:
           ---                                      ---
              STO-SS =           0.0000                STO-SS =           0.0000     STORAGE         
              STO-SY = 13095162702.2997                STO-SY =    17833860.7225     STORAGE         
                 WEL =           0.0000                   WEL =           0.0000     WEL_0           
                 DRN =           0.0000                   DRN =           0.0000     DRN_0           
                 RCH = 27497190856.9334                   RCH =     8616146.8478     RCH_0           

            TOTAL IN = 40592353559.2331              TOTAL IN =    26450007.5703

          OUT:                                     OUT:
          ----                                     ----
              STO-SS =           0.0000                STO-SS =           0.0000     STORAGE         
              STO-SY =  8789273612.5472                STO-SY =     2426002.7618     STORAGE         
                 WEL =  7291684620.3271                   WEL =    15969026.4574     WEL_0           
                 DRN = 24511386295.8945                   DRN =     8054972.4162     DRN_0           
                 RCH =           0.0000                   RCH =           0.0000     RCH_0           

           TOTAL OUT = 40592344528.7688             TOTAL OUT =    26450001.6354

            IN - OUT =        9030.4643              IN - OUT =           5.9349

 PERCENT DISCREPANCY =           0.00     PERCENT DISCREPANCY =           0.00




         TIME SUMMARY AT END OF TIME STEP    1 IN STRESS PERIOD  671
                          TIME STEP LENGTH =    1.00000    
                        STRESS PERIOD TIME =    1.00000    
                     TOTAL SIMULATION TIME =    671.000    

end timestep


start timestep kper="672" kstp="1" mode="normal"


 OUTPUT CONTROL FOR STRESS PERIOD 672 IS REPEATED USING SETTINGS FROM A PREVIOUS STRESS PERIOD.


 STRESS PERIOD 672 IS TRANSIENT


 REUSING WELS FROM LAST STRESS PERIOD

 REUSING DRNS FROM LAST STRESS PERIOD

 REUSING RCHS FROM LAST STRESS PERIOD


  VOLUME BUDGET FOR ENTIRE MODEL AT END OF TIME STEP    1, STRESS PERIOD 672
  ---------------------------------------------------------------------------------------------------

     CUMULATIVE VOLUME      L**3       RATES FOR THIS TIME STEP      L**3/T          PACKAGE NAME    
     ------------------                 ------------------------                     ----------------

           IN:                                      IN:
           ---                                      ---
              STO-SS =           0.0000                STO-SS =           0.0000     STORAGE         
              STO-SY = 13109559637.2956                STO-SY =    14396934.9959     STORAGE         
                 WEL =           0.0000                   WEL =           0.0000     WEL_0           
                 DRN =           0.0000                   DRN =           0.0000     DRN_0           
                 RCH = 27504076852.7697                   RCH =     6885995.8363     RCH_0           

            TOTAL IN = 40613636490.0653              TOTAL IN =    21282930.8322

          OUT:                                     OUT:
          ----                                     ----
              STO-SS =           0.0000                STO-SS =           0.0000     STORAGE         
              STO-SY =  8791741772.0268                STO-SY =     2468159.4796     STORAGE         
                 WEL =  7302223530.2397                   WEL =    10538909.9127     WEL_0           
                 DRN = 24519662149.6951                   DRN =     8275853.8006     DRN_0           
                 RCH =           0.0000                   RCH =           0.0000     RCH_0           

           TOTAL OUT = 40613627451.9616             TOTAL OUT =    21282923.1929

            IN - OUT =        9038.1037              IN - OUT =           7.6393

 PERCENT DISCREPANCY =           0.00     PERCENT DISCREPANCY =           0.00




         TIME SUMMARY AT END OF TIME STEP    1 IN STRESS PERIOD  672
                          TIME STEP LENGTH =    1.00000    
                        STRESS PERIOD TIME =    1.00000    
                     TOTAL SIMULATION TIME =    672.000    

end timestep


start timestep kper="673" kstp="1" mode="normal"


 OUTPUT CONTROL FOR STRESS PERIOD 673 IS REPEATED USING SETTINGS FROM A PREVIOUS STRESS PERIOD.


 STRESS PERIOD 673 IS TRANSIENT


 REUSING WELS FROM LAST STRESS PERIOD

 REUSING DRNS FROM LAST STRESS PERIOD

 REUSING RCHS FROM LAST STRESS PERIOD


  VOLUME BUDGET FOR ENTIRE MODEL AT END OF TIME STEP    1, STRESS PERIOD 673
  ---------------------------------------------------------------------------------------------------

     CUMULATIVE VOLUME      L**3       RATES FOR THIS TIME STEP      L**3/T          PACKAGE NAME    
     ------------------                 ------------------------                     ----------------

           IN:                                      IN:
           ---                                      ---
              STO-SS =           0.0000                STO-SS =           0.0000     STORAGE         
              STO-SY = 13125263599.7814                STO-SY =    15703962.4858     STORAGE         
                 WEL =           0.0000                   WEL =           0.0000     WEL_0           
                 DRN =           0.0000                   DRN =           0.0000     DRN_0           
                 RCH = 27511258239.9901                   RCH =     7181387.2204     RCH_0           

            TOTAL IN = 40636521839.7716              TOTAL IN =    22885349.7063

          OUT:                                     OUT:
          ----                                     ----
              STO-SS =           0.0000                STO-SS =           0.0000     STORAGE         
              STO-SY =  8794002130.2201                STO-SY =     2260358.1933     STORAGE         
                 WEL =  7314935716.9987                   WEL =    12712186.7589     WEL_0           
                 DRN = 24527574955.1094                   DRN =     7912805.4143     DRN_0           
                 RCH =           0.0000                   RCH =           0.0000     RCH_0           

           TOTAL OUT = 40636512802.3282             TOTAL OUT =    22885350.3665

            IN - OUT =        9037.4434              IN - OUT =          -0.6603

 PERCENT DISCREPANCY =           0.00     PERCENT DISCREPANCY =          -0.00




         TIME SUMMARY AT END OF TIME STEP    1 IN STRESS PERIOD  673
                          TIME STEP LENGTH =    1.00000    
                        STRESS PERIOD TIME =    1.00000    
                     TOTAL SIMULATION TIME =    673.000    

end timestep


start timestep kper="674" kstp="1" mode="normal"


 OUTPUT CONTROL FOR STRESS PERIOD 674 IS REPEATED USING SETTINGS FROM A PREVIOUS STRESS PERIOD.


 STRESS PERIOD 674 IS TRANSIENT


 REUSING WELS FROM LAST STRESS PERIOD

 REUSING DRNS FROM LAST STRESS PERIOD

 REUSING RCHS FROM LAST STRESS PERIOD


  VOLUME BUDGET FOR ENTIRE MODEL AT END OF TIME STEP    1, STRESS PERIOD 674
  ---------------------------------------------------------------------------------------------------

     CUMULATIVE VOLUME      L**3       RATES FOR THIS TIME STEP      L**3/T          PACKAGE NAME    
     ------------------                 ------------------------                     ----------------

           IN:                                      IN:
           ---                                      ---
              STO-SS =           0.0000                STO-SS =           0.0000     STORAGE         
              STO-SY = 13141331576.0227                STO-SY =    16067976.2413     STORAGE         
                 WEL =           0.0000                   WEL =           0.0000     WEL_0           
                 DRN =           0.0000                   DRN =           0.0000     DRN_0           
                 RCH = 27518470724.1567                   RCH =     7212484.1665     RCH_0           

            TOTAL IN = 40659802300.1794              TOTAL IN =    23280460.4078

          OUT:                                     OUT:
          ----                                     ----
              STO-SS =           0.0000                STO-SS =           0.0000     STORAGE         
              STO-SY =  8796139643.1886                STO-SY =     2137512.9685     STORAGE         
                 WEL =  7327975415.9255                   WEL =    13039698.9268     WEL_0           
                 DRN = 24535678203.5973                   DRN =     8103248.4879     DRN_0           
                 RCH =           0.0000                   RCH =           0.0000     RCH_0           

           TOTAL OUT = 40659793262.7113             TOTAL OUT =    23280460.3831

            IN - OUT =        9037.4681              IN - OUT =       2.4697E-02

 PERCENT DISCREPANCY =           0.00     PERCENT DISCREPANCY =           0.00




         TIME SUMMARY AT END OF TIME STEP    1 IN STRESS PERIOD  674
                          TIME STEP LENGTH =    1.00000    
                        STRESS PERIOD TIME =    1.00000    
                     TOTAL SIMULATION TIME =    674.000    

end timestep


start timestep kper="675" kstp="1" mode="normal"


 OUTPUT CONTROL FOR STRESS PERIOD 675 IS REPEATED USING SETTINGS FROM A PREVIOUS STRESS PERIOD.


 STRESS PERIOD 675 IS TRANSIENT


 REUSING WELS FROM LAST STRESS PERIOD

 REUSING DRNS FROM LAST STRESS PERIOD

 REUSING RCHS FROM LAST STRESS PERIOD


  VOLUME BUDGET FOR ENTIRE MODEL AT END OF TIME STEP    1, STRESS PERIOD 675
  ---------------------------------------------------------------------------------------------------

     CUMULATIVE VOLUME      L**3       RATES FOR THIS TIME STEP      L**3/T          PACKAGE NAME    
     ------------------                 ------------------------                     ----------------

           IN:                                      IN:
           ---                                      ---
              STO-SS =           0.0000                STO-SS =           0.0000     STORAGE         
              STO-SY = 13155126979.0054                STO-SY =    13795402.9827     STORAGE         
                 WEL =           0.0000                   WEL =           0.0000     WEL_0           
                 DRN =           0.0000                   DRN =           0.0000     DRN_0           
                 RCH = 27524120072.2608                   RCH =     5649348.1042     RCH_0           

            TOTAL IN = 40679247051.2663              TOTAL IN =    19444751.0868

          OUT:                                     OUT:
          ----                                     ----
              STO-SS =           0.0000                STO-SS =           0.0000     STORAGE         
              STO-SY =  8798394403.7783                STO-SY =     2254760.5898     STORAGE         
                 WEL =  7337403323.7328                   WEL =     9427907.8073     WEL_0           
                 DRN = 24543440286.2718                   DRN =     7762082.6745     DRN_0           
                 RCH =           0.0000                   RCH =           0.0000     RCH_0           

           TOTAL OUT = 40679238013.7829             TOTAL OUT =    19444751.0716

            IN - OUT =        9037.4834              IN - OUT =       1.5295E-02

 PERCENT DISCREPANCY =           0.00     PERCENT DISCREPANCY =           0.00




         TIME SUMMARY AT END OF TIME STEP    1 IN STRESS PERIOD  675
                          TIME STEP LENGTH =    1.00000    
                        STRESS PERIOD TIME =    1.00000    
                     TOTAL SIMULATION TIME =    675.000    

end timestep


start timestep kper="676" kstp="1" mode="normal"


 OUTPUT CONTROL FOR STRESS PERIOD 676 IS REPEATED USING SETTINGS FROM A PREVIOUS STRESS PERIOD.


 STRESS PERIOD 676 IS TRANSIENT


 REUSING WELS FROM LAST STRESS PERIOD

 REUSING DRNS FROM LAST STRESS PERIOD

 REUSING RCHS FROM LAST STRESS PERIOD


  VOLUME BUDGET FOR ENTIRE MODEL AT END OF TIME STEP    1, STRESS PERIOD 676
  ---------------------------------------------------------------------------------------------------

     CUMULATIVE VOLUME      L**3       RATES FOR THIS TIME STEP      L**3/T          PACKAGE NAME    
     ------------------                 ------------------------                     ----------------

           IN:                                      IN:
           ---                                      ---
              STO-SS =           0.0000                STO-SS =           0.0000     STORAGE         
              STO-SY = 13173856430.8296                STO-SY =    18729451.8242     STORAGE         
                 WEL =           0.0000                   WEL =           0.0000     WEL_0           
                 DRN =           0.0000                   DRN =           0.0000     DRN_0           
                 RCH = 27532785324.1968                   RCH =     8665251.9359     RCH_0           

            TOTAL IN = 40706641755.0264              TOTAL IN =    27394703.7601

          OUT:                                     OUT:
          ----                                     ----
              STO-SS =           0.0000                STO-SS =           0.0000     STORAGE         
              STO-SY =  8800525273.2820                STO-SY =     2130869.5037     STORAGE         
                 WEL =  7354630857.1010                   WEL =    17227533.3682     WEL_0           
                 DRN = 24551476587.1240                   DRN =     8036300.8523     DRN_0           
                 RCH =           0.0000                   RCH =           0.0000     RCH_0           

           TOTAL OUT = 40706632717.5070             TOTAL OUT =    27394703.7241

            IN - OUT =        9037.5193              IN - OUT =       3.5987E-02

 PERCENT DISCREPANCY =           0.00     PERCENT DISCREPANCY =           0.00




         TIME SUMMARY AT END OF TIME STEP    1 IN STRESS PERIOD  676
                          TIME STEP LENGTH =    1.00000    
                        STRESS PERIOD TIME =    1.00000    
                     TOTAL SIMULATION TIME =    676.000    

end timestep


start timestep kper="677" kstp="1" mode="normal"


 OUTPUT CONTROL FOR STRESS PERIOD 677 IS REPEATED USING SETTINGS FROM A PREVIOUS STRESS PERIOD.


 STRESS PERIOD 677 IS TRANSIENT


 REUSING WELS FROM LAST STRESS PERIOD

 REUSING DRNS FROM LAST STRESS PERIOD

 REUSING RCHS FROM LAST STRESS PERIOD


  VOLUME BUDGET FOR ENTIRE MODEL AT END OF TIME STEP    1, STRESS PERIOD 677
  ---------------------------------------------------------------------------------------------------

     CUMULATIVE VOLUME      L**3       RATES FOR THIS TIME STEP      L**3/T          PACKAGE NAME    
     ------------------                 ------------------------                     ----------------

           IN:                                      IN:
           ---                                      ---
              STO-SS =           0.0000                STO-SS =           0.0000     STORAGE         
              STO-SY = 13192330122.2206                STO-SY =    18473691.3909     STORAGE         
                 WEL =           0.0000                   WEL =           0.0000     WEL_0           
                 DRN =           0.0000                   DRN =           0.0000     DRN_0           
                 RCH = 27541545842.4741                   RCH =     8760518.2774     RCH_0           

            TOTAL IN = 40733875964.6947              TOTAL IN =    27234209.6683

          OUT:                                     OUT:
          ----                                     ----
              STO-SS =           0.0000                STO-SS =           0.0000     STORAGE         
              STO-SY =  8802657669.6518                STO-SY =     2132396.3698     STORAGE         
                 WEL =  7371988447.9940                   WEL =    17357590.8930     WEL_0           
                 DRN = 24559220809.9000                   DRN =     7744222.7760     DRN_0           
                 RCH =           0.0000                   RCH =           0.0000     RCH_0           

           TOTAL OUT = 40733866927.5458             TOTAL OUT =    27234210.0388

            IN - OUT =        9037.1489              IN - OUT =          -0.3705

 PERCENT DISCREPANCY =           0.00     PERCENT DISCREPANCY =          -0.00




         TIME SUMMARY AT END OF TIME STEP    1 IN STRESS PERIOD  677
                          TIME STEP LENGTH =    1.00000    
                        STRESS PERIOD TIME =    1.00000    
                     TOTAL SIMULATION TIME =    677.000    

end timestep


start timestep kper="678" kstp="1" mode="normal"


 OUTPUT CONTROL FOR STRESS PERIOD 678 IS REPEATED USING SETTINGS FROM A PREVIOUS STRESS PERIOD.


 STRESS PERIOD 678 IS TRANSIENT


 REUSING WELS FROM LAST STRESS PERIOD

 REUSING DRNS FROM LAST STRESS PERIOD

 REUSING RCHS FROM LAST STRESS PERIOD


  VOLUME BUDGET FOR ENTIRE MODEL AT END OF TIME STEP    1, STRESS PERIOD 678
  ---------------------------------------------------------------------------------------------------

     CUMULATIVE VOLUME      L**3       RATES FOR THIS TIME STEP      L**3/T          PACKAGE NAME    
     ------------------                 ------------------------                     ----------------

           IN:                                      IN:
           ---                                      ---
              STO-SS =           0.0000                STO-SS =           0.0000     STORAGE         
              STO-SY = 13206215733.2606                STO-SY =    13885611.0400     STORAGE         
                 WEL =           0.0000                   WEL =           0.0000     WEL_0           
                 DRN =           0.0000                   DRN =           0.0000     DRN_0           
                 RCH = 27548256128.4330                   RCH =     6710285.9589     RCH_0           

            TOTAL IN = 40754471861.6936              TOTAL IN =    20595896.9989

          OUT:                                     OUT:
          ----                                     ----
              STO-SS =           0.0000                STO-SS =           0.0000     STORAGE         
              STO-SY =  8804992562.7959                STO-SY =     2334893.1441     STORAGE         
                 WEL =  7382462323.0020                   WEL =    10473875.0079     WEL_0           
                 DRN = 24567007900.2427                   DRN =     7787090.3427     DRN_0           
                 RCH =           0.0000                   RCH =           0.0000     RCH_0           

           TOTAL OUT = 40754462786.0406             TOTAL OUT =    20595858.4948

            IN - OUT =        9075.6530              IN - OUT =          38.5041

 PERCENT DISCREPANCY =           0.00     PERCENT DISCREPANCY =           0.00




         TIME SUMMARY AT END OF TIME STEP    1 IN STRESS PERIOD  678
                          TIME STEP LENGTH =    1.00000    
                        STRESS PERIOD TIME =    1.00000    
                     TOTAL SIMULATION TIME =    678.000    

end timestep


start timestep kper="679" kstp="1" mode="normal"


 OUTPUT CONTROL FOR STRESS PERIOD 679 IS REPEATED USING SETTINGS FROM A PREVIOUS STRESS PERIOD.


 STRESS PERIOD 679 IS TRANSIENT


 REUSING WELS FROM LAST STRESS PERIOD

 REUSING DRNS FROM LAST STRESS PERIOD

 REUSING RCHS FROM LAST STRESS PERIOD


  VOLUME BUDGET FOR ENTIRE MODEL AT END OF TIME STEP    1, STRESS PERIOD 679
  ---------------------------------------------------------------------------------------------------

     CUMULATIVE VOLUME      L**3       RATES FOR THIS TIME STEP      L**3/T          PACKAGE NAME    
     ------------------                 ------------------------                     ----------------

           IN:                                      IN:
           ---                                      ---
              STO-SS =           0.0000                STO-SS =           0.0000     STORAGE         
              STO-SY = 13220021246.4076                STO-SY =    13805513.1470     STORAGE         
                 WEL =           0.0000                   WEL =           0.0000     WEL_0           
                 DRN =           0.0000                   DRN =           0.0000     DRN_0           
                 RCH = 27554396243.1312                   RCH =     6140114.6982     RCH_0           

            TOTAL IN = 40774417489.5388              TOTAL IN =    19945627.8452

          OUT:                                     OUT:
          ----                                     ----
              STO-SS =           0.0000                STO-SS =           0.0000     STORAGE         
              STO-SY =  8807161240.9531                STO-SY =     2168678.1572     STORAGE         
                 WEL =  7392707020.7246                   WEL =    10244697.7227     WEL_0           
                 DRN = 24574540152.7749                   DRN =     7532252.5322     DRN_0           
                 RCH =           0.0000                   RCH =           0.0000     RCH_0           

           TOTAL OUT = 40774408414.4527             TOTAL OUT =    19945628.4121

            IN - OUT =        9075.0861              IN - OUT =          -0.5668

 PERCENT DISCREPANCY =           0.00     PERCENT DISCREPANCY =          -0.00




         TIME SUMMARY AT END OF TIME STEP    1 IN STRESS PERIOD  679
                          TIME STEP LENGTH =    1.00000    
                        STRESS PERIOD TIME =    1.00000    
                     TOTAL SIMULATION TIME =    679.000    

end timestep


start timestep kper="680" kstp="1" mode="normal"


 OUTPUT CONTROL FOR STRESS PERIOD 680 IS REPEATED USING SETTINGS FROM A PREVIOUS STRESS PERIOD.


 STRESS PERIOD 680 IS TRANSIENT


 REUSING WELS FROM LAST STRESS PERIOD

 REUSING DRNS FROM LAST STRESS PERIOD

 REUSING RCHS FROM LAST STRESS PERIOD


  VOLUME BUDGET FOR ENTIRE MODEL AT END OF TIME STEP    1, STRESS PERIOD 680
  ---------------------------------------------------------------------------------------------------

     CUMULATIVE VOLUME      L**3       RATES FOR THIS TIME STEP      L**3/T          PACKAGE NAME    
     ------------------                 ------------------------                     ----------------

           IN:                                      IN:
           ---                                      ---
              STO-SS =           0.0000                STO-SS =           0.0000     STORAGE         
              STO-SY = 13235177610.1774                STO-SY =    15156363.7698     STORAGE         
                 WEL =           0.0000                   WEL =           0.0000     WEL_0           
                 DRN =           0.0000                   DRN =           0.0000     DRN_0           
                 RCH = 27561621686.0844                   RCH =     7225442.9531     RCH_0           

            TOTAL IN = 40796799296.2618              TOTAL IN =    22381806.7230

          OUT:                                     OUT:
          ----                                     ----
              STO-SS =           0.0000                STO-SS =           0.0000     STORAGE         
              STO-SY =  8809411042.9240                STO-SY =     2249801.9709     STORAGE         
                 WEL =  7404957063.9302                   WEL =    12250043.2055     WEL_0           
                 DRN = 24582422105.1032                   DRN =     7881952.3283     DRN_0           
                 RCH =           0.0000                   RCH =           0.0000     RCH_0           

           TOTAL OUT = 40796790211.9574             TOTAL OUT =    22381797.5047

            IN - OUT =        9084.3044              IN - OUT =           9.2183

 PERCENT DISCREPANCY =           0.00     PERCENT DISCREPANCY =           0.00




         TIME SUMMARY AT END OF TIME STEP    1 IN STRESS PERIOD  680
                          TIME STEP LENGTH =    1.00000    
                        STRESS PERIOD TIME =    1.00000    
                     TOTAL SIMULATION TIME =    680.000    

end timestep


start timestep kper="681" kstp="1" mode="normal"


 OUTPUT CONTROL FOR STRESS PERIOD 681 IS REPEATED USING SETTINGS FROM A PREVIOUS STRESS PERIOD.


 STRESS PERIOD 681 IS TRANSIENT


 REUSING WELS FROM LAST STRESS PERIOD

 REUSING DRNS FROM LAST STRESS PERIOD

 REUSING RCHS FROM LAST STRESS PERIOD


  VOLUME BUDGET FOR ENTIRE MODEL AT END OF TIME STEP    1, STRESS PERIOD 681
  ---------------------------------------------------------------------------------------------------

     CUMULATIVE VOLUME      L**3       RATES FOR THIS TIME STEP      L**3/T          PACKAGE NAME    
     ------------------                 ------------------------                     ----------------

           IN:                                      IN:
           ---                                      ---
              STO-SS =           0.0000                STO-SS =           0.0000     STORAGE         
              STO-SY = 13250248012.7753                STO-SY =    15070402.5979     STORAGE         
                 WEL =           0.0000                   WEL =           0.0000     WEL_0           
                 DRN =           0.0000                   DRN =           0.0000     DRN_0           
                 RCH = 27568472545.0811                   RCH =     6850858.9968     RCH_0           

            TOTAL IN = 40818720557.8564              TOTAL IN =    21921261.5946

          OUT:                                     OUT:
          ----                                     ----
              STO-SS =           0.0000                STO-SS =           0.0000     STORAGE         
              STO-SY =  8811459969.1011                STO-SY =     2048926.1771     STORAGE         
                 WEL =  7417316302.5049                   WEL =    12359238.5747     WEL_0           
                 DRN = 24589935200.8734                   DRN =     7513095.7702     DRN_0           
                 RCH =           0.0000                   RCH =           0.0000     RCH_0           

           TOTAL OUT = 40818711472.4794             TOTAL OUT =    21921260.5220

            IN - OUT =        9085.3770              IN - OUT =           1.0726

 PERCENT DISCREPANCY =           0.00     PERCENT DISCREPANCY =           0.00




         TIME SUMMARY AT END OF TIME STEP    1 IN STRESS PERIOD  681
                          TIME STEP LENGTH =    1.00000    
                        STRESS PERIOD TIME =    1.00000    
                     TOTAL SIMULATION TIME =    681.000    

end timestep


start timestep kper="682" kstp="1" mode="normal"


 OUTPUT CONTROL FOR STRESS PERIOD 682 IS REPEATED USING SETTINGS FROM A PREVIOUS STRESS PERIOD.


 STRESS PERIOD 682 IS TRANSIENT


 REUSING WELS FROM LAST STRESS PERIOD

 REUSING DRNS FROM LAST STRESS PERIOD

 REUSING RCHS FROM LAST STRESS PERIOD


  VOLUME BUDGET FOR ENTIRE MODEL AT END OF TIME STEP    1, STRESS PERIOD 682
  ---------------------------------------------------------------------------------------------------

     CUMULATIVE VOLUME      L**3       RATES FOR THIS TIME STEP      L**3/T          PACKAGE NAME    
     ------------------                 ------------------------                     ----------------

           IN:                                      IN:
           ---                                      ---
              STO-SS =           0.0000                STO-SS =           0.0000     STORAGE         
              STO-SY = 13263324702.4196                STO-SY =    13076689.6443     STORAGE         
                 WEL =           0.0000                   WEL =           0.0000     WEL_0           
                 DRN =           0.0000                   DRN =           0.0000     DRN_0           
                 RCH = 27575082332.9068                   RCH =     6609787.8257     RCH_0           

            TOTAL IN = 40838407035.3264              TOTAL IN =    19686477.4700

          OUT:                                     OUT:
          ----                                     ----
              STO-SS =           0.0000                STO-SS =           0.0000     STORAGE         
              STO-SY =  8813713676.4352                STO-SY =     2253707.3341     STORAGE         
                 WEL =  7427142069.1757                   WEL =     9825766.6708     WEL_0           
                 DRN = 24597542185.2817                   DRN =     7606984.4083     DRN_0           
                 RCH =           0.0000                   RCH =           0.0000     RCH_0           

           TOTAL OUT = 40838397930.8926             TOTAL OUT =    19686458.4132

            IN - OUT =        9104.4338              IN - OUT =          19.0568

 PERCENT DISCREPANCY =           0.00     PERCENT DISCREPANCY =           0.00




         TIME SUMMARY AT END OF TIME STEP    1 IN STRESS PERIOD  682
                          TIME STEP LENGTH =    1.00000    
                        STRESS PERIOD TIME =    1.00000    
                     TOTAL SIMULATION TIME =    682.000    

end timestep


start timestep kper="683" kstp="1" mode="normal"


 OUTPUT CONTROL FOR STRESS PERIOD 683 IS REPEATED USING SETTINGS FROM A PREVIOUS STRESS PERIOD.


 STRESS PERIOD 683 IS TRANSIENT


 REUSING WELS FROM LAST STRESS PERIOD

 REUSING DRNS FROM LAST STRESS PERIOD

 REUSING RCHS FROM LAST STRESS PERIOD


  VOLUME BUDGET FOR ENTIRE MODEL AT END OF TIME STEP    1, STRESS PERIOD 683
  ---------------------------------------------------------------------------------------------------

     CUMULATIVE VOLUME      L**3       RATES FOR THIS TIME STEP      L**3/T          PACKAGE NAME    
     ------------------                 ------------------------                     ----------------

           IN:                                      IN:
           ---                                      ---
              STO-SS =           0.0000                STO-SS =           0.0000     STORAGE         
              STO-SY = 13277780762.2745                STO-SY =    14456059.8549     STORAGE         
                 WEL =           0.0000                   WEL =           0.0000     WEL_0           
                 DRN =           0.0000                   DRN =           0.0000     DRN_0           
                 RCH = 27581778662.0448                   RCH =     6696329.1380     RCH_0           

            TOTAL IN = 40859559424.3193              TOTAL IN =    21152388.9929

          OUT:                                     OUT:
          ----                                     ----
              STO-SS =           0.0000                STO-SS =           0.0000     STORAGE         
              STO-SY =  8815990466.8018                STO-SY =     2276790.3666     STORAGE         
                 WEL =  7438675518.4539                   WEL =    11533449.2782     WEL_0           
                 DRN = 24604884286.8780                   DRN =     7342101.5963     DRN_0           
                 RCH =           0.0000                   RCH =           0.0000     RCH_0           

           TOTAL OUT = 40859550272.1336             TOTAL OUT =    21152341.2411

            IN - OUT =        9152.1856              IN - OUT =          47.7518

 PERCENT DISCREPANCY =           0.00     PERCENT DISCREPANCY =           0.00




         TIME SUMMARY AT END OF TIME STEP    1 IN STRESS PERIOD  683
                          TIME STEP LENGTH =    1.00000    
                        STRESS PERIOD TIME =    1.00000    
                     TOTAL SIMULATION TIME =    683.000    

end timestep


start timestep kper="684" kstp="1" mode="normal"


 OUTPUT CONTROL FOR STRESS PERIOD 684 IS REPEATED USING SETTINGS FROM A PREVIOUS STRESS PERIOD.


 STRESS PERIOD 684 IS TRANSIENT


 REUSING WELS FROM LAST STRESS PERIOD

 REUSING DRNS FROM LAST STRESS PERIOD

 REUSING RCHS FROM LAST STRESS PERIOD


  VOLUME BUDGET FOR ENTIRE MODEL AT END OF TIME STEP    1, STRESS PERIOD 684
  ---------------------------------------------------------------------------------------------------

     CUMULATIVE VOLUME      L**3       RATES FOR THIS TIME STEP      L**3/T          PACKAGE NAME    
     ------------------                 ------------------------                     ----------------

           IN:                                      IN:
           ---                                      ---
              STO-SS =           0.0000                STO-SS =           0.0000     STORAGE         
              STO-SY = 13294839772.7776                STO-SY =    17059010.5031     STORAGE         
                 WEL =           0.0000                   WEL =           0.0000     WEL_0           
                 DRN =           0.0000                   DRN =           0.0000     DRN_0           
                 RCH = 27590301554.5710                   RCH =     8522892.5262     RCH_0           

            TOTAL IN = 40885141327.3486              TOTAL IN =    25581903.0293

          OUT:                                     OUT:
          ----                                     ----
              STO-SS =           0.0000                STO-SS =           0.0000     STORAGE         
              STO-SY =  8818053880.7060                STO-SY =     2063413.9042     STORAGE         
                 WEL =  7454492753.5782                   WEL =    15817235.1243     WEL_0           
                 DRN = 24612585540.8444                   DRN =     7701253.9664     DRN_0           
                 RCH =           0.0000                   RCH =           0.0000     RCH_0           

           TOTAL OUT = 40885132175.1286             TOTAL OUT =    25581902.9949

            IN - OUT =        9152.2200              IN - OUT =       3.4386E-02

 PERCENT DISCREPANCY =           0.00     PERCENT DISCREPANCY =           0.00




         TIME SUMMARY AT END OF TIME STEP    1 IN STRESS PERIOD  684
                          TIME STEP LENGTH =    1.00000    
                        STRESS PERIOD TIME =    1.00000    
                     TOTAL SIMULATION TIME =    684.000    

end timestep


start timestep kper="685" kstp="1" mode="normal"


 OUTPUT CONTROL FOR STRESS PERIOD 685 IS REPEATED USING SETTINGS FROM A PREVIOUS STRESS PERIOD.


 STRESS PERIOD 685 IS TRANSIENT


 REUSING WELS FROM LAST STRESS PERIOD

 REUSING DRNS FROM LAST STRESS PERIOD

 REUSING RCHS FROM LAST STRESS PERIOD


  VOLUME BUDGET FOR ENTIRE MODEL AT END OF TIME STEP    1, STRESS PERIOD 685
  ---------------------------------------------------------------------------------------------------

     CUMULATIVE VOLUME      L**3       RATES FOR THIS TIME STEP      L**3/T          PACKAGE NAME    
     ------------------                 ------------------------                     ----------------

           IN:                                      IN:
           ---                                      ---
              STO-SS =           0.0000                STO-SS =           0.0000     STORAGE         
              STO-SY = 13314918885.3560                STO-SY =    20079112.5783     STORAGE         
                 WEL =           0.0000                   WEL =           0.0000     WEL_0           
                 DRN =           0.0000                   DRN =           0.0000     DRN_0           
                 RCH = 27599205274.6011                   RCH =     8903720.0301     RCH_0           

            TOTAL IN = 40914124159.9571              TOTAL IN =    28982832.6085

          OUT:                                     OUT:
          ----                                     ----
              STO-SS =           0.0000                STO-SS =           0.0000     STORAGE         
              STO-SY =  8819948139.6614                STO-SY =     1894258.9554     STORAGE         
                 WEL =  7474312083.3880                   WEL =    19819329.8097     WEL_0           
                 DRN = 24619854784.6510                   DRN =     7269243.8066     DRN_0           
                 RCH =           0.0000                   RCH =           0.0000     RCH_0           

           TOTAL OUT = 40914115007.7004             TOTAL OUT =    28982832.5718

            IN - OUT =        9152.2567              IN - OUT =       3.6690E-02

 PERCENT DISCREPANCY =           0.00     PERCENT DISCREPANCY =           0.00




         TIME SUMMARY AT END OF TIME STEP    1 IN STRESS PERIOD  685
                          TIME STEP LENGTH =    1.00000    
                        STRESS PERIOD TIME =    1.00000    
                     TOTAL SIMULATION TIME =    685.000    

end timestep


start timestep kper="686" kstp="1" mode="normal"


 OUTPUT CONTROL FOR STRESS PERIOD 686 IS REPEATED USING SETTINGS FROM A PREVIOUS STRESS PERIOD.


 STRESS PERIOD 686 IS TRANSIENT


 REUSING WELS FROM LAST STRESS PERIOD

 REUSING DRNS FROM LAST STRESS PERIOD

 REUSING RCHS FROM LAST STRESS PERIOD


  VOLUME BUDGET FOR ENTIRE MODEL AT END OF TIME STEP    1, STRESS PERIOD 686
  ---------------------------------------------------------------------------------------------------

     CUMULATIVE VOLUME      L**3       RATES FOR THIS TIME STEP      L**3/T          PACKAGE NAME    
     ------------------                 ------------------------                     ----------------

           IN:                                      IN:
           ---                                      ---
              STO-SS =           0.0000                STO-SS =           0.0000     STORAGE         
              STO-SY = 13331416397.0614                STO-SY =    16497511.7054     STORAGE         
                 WEL =           0.0000                   WEL =           0.0000     WEL_0           
                 DRN =           0.0000                   DRN =           0.0000     DRN_0           
                 RCH = 27606907246.9033                   RCH =     7701972.3022     RCH_0           

            TOTAL IN = 40938323643.9647              TOTAL IN =    24199484.0076

          OUT:                                     OUT:
          ----                                     ----
              STO-SS =           0.0000                STO-SS =           0.0000     STORAGE         
              STO-SY =  8821953874.7191                STO-SY =     2005735.0577     STORAGE         
                 WEL =  7488996064.0301                   WEL =    14683980.6422     WEL_0           
                 DRN = 24627364535.8056                   DRN =     7509751.1545     DRN_0           
                 RCH =           0.0000                   RCH =           0.0000     RCH_0           

           TOTAL OUT = 40938314474.5548             TOTAL OUT =    24199466.8545

            IN - OUT =        9169.4099              IN - OUT =          17.1532

 PERCENT DISCREPANCY =           0.00     PERCENT DISCREPANCY =           0.00




         TIME SUMMARY AT END OF TIME STEP    1 IN STRESS PERIOD  686
                          TIME STEP LENGTH =    1.00000    
                        STRESS PERIOD TIME =    1.00000    
                     TOTAL SIMULATION TIME =    686.000    

end timestep


start timestep kper="687" kstp="1" mode="normal"


 OUTPUT CONTROL FOR STRESS PERIOD 687 IS REPEATED USING SETTINGS FROM A PREVIOUS STRESS PERIOD.


 STRESS PERIOD 687 IS TRANSIENT


 REUSING WELS FROM LAST STRESS PERIOD

 REUSING DRNS FROM LAST STRESS PERIOD

 REUSING RCHS FROM LAST STRESS PERIOD


  VOLUME BUDGET FOR ENTIRE MODEL AT END OF TIME STEP    1, STRESS PERIOD 687
  ---------------------------------------------------------------------------------------------------

     CUMULATIVE VOLUME      L**3       RATES FOR THIS TIME STEP      L**3/T          PACKAGE NAME    
     ------------------                 ------------------------                     ----------------

           IN:                                      IN:
           ---                                      ---
              STO-SS =           0.0000                STO-SS =           0.0000     STORAGE         
              STO-SY = 13344877131.2370                STO-SY =    13460734.1757     STORAGE         
                 WEL =           0.0000                   WEL =           0.0000     WEL_0           
                 DRN =           0.0000                   DRN =           0.0000     DRN_0           
                 RCH = 27612311135.7062                   RCH =     5403888.8029     RCH_0           

            TOTAL IN = 40957188266.9432              TOTAL IN =    18864622.9785

          OUT:                                     OUT:
          ----                                     ----
              STO-SS =           0.0000                STO-SS =           0.0000     STORAGE         
              STO-SY =  8823994808.6658                STO-SY =     2040933.9467     STORAGE         
                 WEL =  7498672834.5816                   WEL =     9676770.5515     WEL_0           
                 DRN = 24634511437.2006                   DRN =     7146901.3950     DRN_0           
                 RCH =           0.0000                   RCH =           0.0000     RCH_0           

           TOTAL OUT = 40957179080.4481             TOTAL OUT =    18864605.8932

            IN - OUT =        9186.4952              IN - OUT =          17.0853

 PERCENT DISCREPANCY =           0.00     PERCENT DISCREPANCY =           0.00




         TIME SUMMARY AT END OF TIME STEP    1 IN STRESS PERIOD  687
                          TIME STEP LENGTH =    1.00000    
                        STRESS PERIOD TIME =    1.00000    
                     TOTAL SIMULATION TIME =    687.000    

end timestep


start timestep kper="688" kstp="1" mode="normal"


 OUTPUT CONTROL FOR STRESS PERIOD 688 IS REPEATED USING SETTINGS FROM A PREVIOUS STRESS PERIOD.


 STRESS PERIOD 688 IS TRANSIENT


 REUSING WELS FROM LAST STRESS PERIOD

 REUSING DRNS FROM LAST STRESS PERIOD

 REUSING RCHS FROM LAST STRESS PERIOD


  VOLUME BUDGET FOR ENTIRE MODEL AT END OF TIME STEP    1, STRESS PERIOD 688
  ---------------------------------------------------------------------------------------------------

     CUMULATIVE VOLUME      L**3       RATES FOR THIS TIME STEP      L**3/T          PACKAGE NAME    
     ------------------                 ------------------------                     ----------------

           IN:                                      IN:
           ---                                      ---
              STO-SS =           0.0000                STO-SS =           0.0000     STORAGE         
              STO-SY = 13357714763.6701                STO-SY =    12837632.4331     STORAGE         
                 WEL =           0.0000                   WEL =           0.0000     WEL_0           
                 DRN =           0.0000                   DRN =           0.0000     DRN_0           
                 RCH = 27617949826.2187                   RCH =     5638690.5125     RCH_0           

            TOTAL IN = 40975664589.8888              TOTAL IN =    18476322.9456

          OUT:                                     OUT:
          ----                                     ----
              STO-SS =           0.0000                STO-SS =           0.0000     STORAGE         
              STO-SY =  8826266057.9169                STO-SY =     2271249.2511     STORAGE         
                 WEL =  7507464931.6054                   WEL =     8792097.0238     WEL_0           
                 DRN = 24641924413.6051                   DRN =     7412976.4045     DRN_0           
                 RCH =           0.0000                   RCH =           0.0000     RCH_0           

           TOTAL OUT = 40975655403.1275             TOTAL OUT =    18476322.6794

            IN - OUT =        9186.7614              IN - OUT =           0.2662

 PERCENT DISCREPANCY =           0.00     PERCENT DISCREPANCY =           0.00




         TIME SUMMARY AT END OF TIME STEP    1 IN STRESS PERIOD  688
                          TIME STEP LENGTH =    1.00000    
                        STRESS PERIOD TIME =    1.00000    
                     TOTAL SIMULATION TIME =    688.000    

end timestep


start timestep kper="689" kstp="1" mode="normal"


 OUTPUT CONTROL FOR STRESS PERIOD 689 IS REPEATED USING SETTINGS FROM A PREVIOUS STRESS PERIOD.


 STRESS PERIOD 689 IS TRANSIENT


 REUSING WELS FROM LAST STRESS PERIOD

 REUSING DRNS FROM LAST STRESS PERIOD

 REUSING RCHS FROM LAST STRESS PERIOD


  VOLUME BUDGET FOR ENTIRE MODEL AT END OF TIME STEP    1, STRESS PERIOD 689
  ---------------------------------------------------------------------------------------------------

     CUMULATIVE VOLUME      L**3       RATES FOR THIS TIME STEP      L**3/T          PACKAGE NAME    
     ------------------                 ------------------------                     ----------------

           IN:                                      IN:
           ---                                      ---
              STO-SS =           0.0000                STO-SS =           0.0000     STORAGE         
              STO-SY = 13371690243.8550                STO-SY =    13975480.1849     STORAGE         
                 WEL =           0.0000                   WEL =           0.0000     WEL_0           
                 DRN =           0.0000                   DRN =           0.0000     DRN_0           
                 RCH = 27623545418.2215                   RCH =     5595592.0028     RCH_0           

            TOTAL IN = 40995235662.0765              TOTAL IN =    19571072.1877

          OUT:                                     OUT:
          ----                                     ----
              STO-SS =           0.0000                STO-SS =           0.0000     STORAGE         
              STO-SY =  8828400010.0199                STO-SY =     2133952.1030     STORAGE         
                 WEL =  7517743053.4915                   WEL =    10278121.8861     WEL_0           
                 DRN = 24649083391.0704                   DRN =     7158977.4653     DRN_0           
                 RCH =           0.0000                   RCH =           0.0000     RCH_0           

           TOTAL OUT = 40995226454.5818             TOTAL OUT =    19571051.4544

            IN - OUT =        9207.4946              IN - OUT =          20.7333

 PERCENT DISCREPANCY =           0.00     PERCENT DISCREPANCY =           0.00




         TIME SUMMARY AT END OF TIME STEP    1 IN STRESS PERIOD  689
                          TIME STEP LENGTH =    1.00000    
                        STRESS PERIOD TIME =    1.00000    
                     TOTAL SIMULATION TIME =    689.000    

end timestep


start timestep kper="690" kstp="1" mode="normal"


 OUTPUT CONTROL FOR STRESS PERIOD 690 IS REPEATED USING SETTINGS FROM A PREVIOUS STRESS PERIOD.


 STRESS PERIOD 690 IS TRANSIENT


 REUSING WELS FROM LAST STRESS PERIOD

 REUSING DRNS FROM LAST STRESS PERIOD

 REUSING RCHS FROM LAST STRESS PERIOD


  VOLUME BUDGET FOR ENTIRE MODEL AT END OF TIME STEP    1, STRESS PERIOD 690
  ---------------------------------------------------------------------------------------------------

     CUMULATIVE VOLUME      L**3       RATES FOR THIS TIME STEP      L**3/T          PACKAGE NAME    
     ------------------                 ------------------------                     ----------------

           IN:                                      IN:
           ---                                      ---
              STO-SS =           0.0000                STO-SS =           0.0000     STORAGE         
              STO-SY = 13384695233.1217                STO-SY =    13004989.2667     STORAGE         
                 WEL =           0.0000                   WEL =           0.0000     WEL_0           
                 DRN =           0.0000                   DRN =           0.0000     DRN_0           
                 RCH = 27629599583.0290                   RCH =     6054164.8075     RCH_0           

            TOTAL IN = 41014294816.1507              TOTAL IN =    19059154.0742

          OUT:                                     OUT:
          ----                                     ----
              STO-SS =           0.0000                STO-SS =           0.0000     STORAGE         
              STO-SY =  8830835900.5754                STO-SY =     2435890.5555     STORAGE         
                 WEL =  7526876109.5901                   WEL =     9133056.0985     WEL_0           
                 DRN = 24656573598.4703                   DRN =     7490207.3999     DRN_0           
                 RCH =           0.0000                   RCH =           0.0000     RCH_0           

           TOTAL OUT = 41014285608.6358             TOTAL OUT =    19059154.0540

            IN - OUT =        9207.5149              IN - OUT =       2.0250E-02

 PERCENT DISCREPANCY =           0.00     PERCENT DISCREPANCY =           0.00




         TIME SUMMARY AT END OF TIME STEP    1 IN STRESS PERIOD  690
                          TIME STEP LENGTH =    1.00000    
                        STRESS PERIOD TIME =    1.00000    
                     TOTAL SIMULATION TIME =    690.000    

end timestep


start timestep kper="691" kstp="1" mode="normal"


 OUTPUT CONTROL FOR STRESS PERIOD 691 IS REPEATED USING SETTINGS FROM A PREVIOUS STRESS PERIOD.


 STRESS PERIOD 691 IS TRANSIENT


 REUSING WELS FROM LAST STRESS PERIOD

 REUSING DRNS FROM LAST STRESS PERIOD

 REUSING RCHS FROM LAST STRESS PERIOD


  VOLUME BUDGET FOR ENTIRE MODEL AT END OF TIME STEP    1, STRESS PERIOD 691
  ---------------------------------------------------------------------------------------------------

     CUMULATIVE VOLUME      L**3       RATES FOR THIS TIME STEP      L**3/T          PACKAGE NAME    
     ------------------                 ------------------------                     ----------------

           IN:                                      IN:
           ---                                      ---
              STO-SS =           0.0000                STO-SS =           0.0000     STORAGE         
              STO-SY = 13398062559.4670                STO-SY =    13367326.3452     STORAGE         
                 WEL =           0.0000                   WEL =           0.0000     WEL_0           
                 DRN =           0.0000                   DRN =           0.0000     DRN_0           
                 RCH = 27635168780.2313                   RCH =     5569197.2024     RCH_0           

            TOTAL IN = 41033231339.6983              TOTAL IN =    18936523.5476

          OUT:                                     OUT:
          ----                                     ----
              STO-SS =           0.0000                STO-SS =           0.0000     STORAGE         
              STO-SY =  8833049242.8837                STO-SY =     2213342.3083     STORAGE         
                 WEL =  7536532838.8330                   WEL =     9656729.2430     WEL_0           
                 DRN = 24663640050.4521                   DRN =     7066451.9818     DRN_0           
                 RCH =           0.0000                   RCH =           0.0000     RCH_0           

           TOTAL OUT = 41033222132.1688             TOTAL OUT =    18936523.5331

            IN - OUT =        9207.5294              IN - OUT =       1.4552E-02

 PERCENT DISCREPANCY =           0.00     PERCENT DISCREPANCY =           0.00




         TIME SUMMARY AT END OF TIME STEP    1 IN STRESS PERIOD  691
                          TIME STEP LENGTH =    1.00000    
                        STRESS PERIOD TIME =    1.00000    
                     TOTAL SIMULATION TIME =    691.000    

end timestep


start timestep kper="692" kstp="1" mode="normal"


 OUTPUT CONTROL FOR STRESS PERIOD 692 IS REPEATED USING SETTINGS FROM A PREVIOUS STRESS PERIOD.


 STRESS PERIOD 692 IS TRANSIENT


 REUSING WELS FROM LAST STRESS PERIOD

 REUSING DRNS FROM LAST STRESS PERIOD

 REUSING RCHS FROM LAST STRESS PERIOD


  VOLUME BUDGET FOR ENTIRE MODEL AT END OF TIME STEP    1, STRESS PERIOD 692
  ---------------------------------------------------------------------------------------------------

     CUMULATIVE VOLUME      L**3       RATES FOR THIS TIME STEP      L**3/T          PACKAGE NAME    
     ------------------                 ------------------------                     ----------------

           IN:                                      IN:
           ---                                      ---
              STO-SS =           0.0000                STO-SS =           0.0000     STORAGE         
              STO-SY = 13410855668.2533                STO-SY =    12793108.7863     STORAGE         
                 WEL =           0.0000                   WEL =           0.0000     WEL_0           
                 DRN =           0.0000                   DRN =           0.0000     DRN_0           
                 RCH = 27640794449.5876                   RCH =     5625669.3563     RCH_0           

            TOTAL IN = 41051650117.8409              TOTAL IN =    18418778.1426

          OUT:                                     OUT:
          ----                                     ----
              STO-SS =           0.0000                STO-SS =           0.0000     STORAGE         
              STO-SY =  8835563837.8788                STO-SY =     2514594.9951     STORAGE         
                 WEL =  7544993713.4915                   WEL =     8460874.6585     WEL_0           
                 DRN = 24671083347.5171                   DRN =     7443297.0650     DRN_0           
                 RCH =           0.0000                   RCH =           0.0000     RCH_0           

           TOTAL OUT = 41051640898.8874             TOTAL OUT =    18418766.7186

            IN - OUT =        9218.9535              IN - OUT =          11.4241

 PERCENT DISCREPANCY =           0.00     PERCENT DISCREPANCY =           0.00




         TIME SUMMARY AT END OF TIME STEP    1 IN STRESS PERIOD  692
                          TIME STEP LENGTH =    1.00000    
                        STRESS PERIOD TIME =    1.00000    
                     TOTAL SIMULATION TIME =    692.000    

end timestep


start timestep kper="693" kstp="1" mode="normal"


 OUTPUT CONTROL FOR STRESS PERIOD 693 IS REPEATED USING SETTINGS FROM A PREVIOUS STRESS PERIOD.


 STRESS PERIOD 693 IS TRANSIENT


 REUSING WELS FROM LAST STRESS PERIOD

 REUSING DRNS FROM LAST STRESS PERIOD

 REUSING RCHS FROM LAST STRESS PERIOD


  VOLUME BUDGET FOR ENTIRE MODEL AT END OF TIME STEP    1, STRESS PERIOD 693
  ---------------------------------------------------------------------------------------------------

     CUMULATIVE VOLUME      L**3       RATES FOR THIS TIME STEP      L**3/T          PACKAGE NAME    
     ------------------                 ------------------------                     ----------------

           IN:                                      IN:
           ---                                      ---
              STO-SS =           0.0000                STO-SS =           0.0000     STORAGE         
              STO-SY = 13427321745.1834                STO-SY =    16466076.9301     STORAGE         
                 WEL =           0.0000                   WEL =           0.0000     WEL_0           
                 DRN =           0.0000                   DRN =           0.0000     DRN_0           
                 RCH = 27648384623.8809                   RCH =     7590174.2933     RCH_0           

            TOTAL IN = 41075706369.0643              TOTAL IN =    24056251.2233

          OUT:                                     OUT:
          ----                                     ----
              STO-SS =           0.0000                STO-SS =           0.0000     STORAGE         
              STO-SY =  8837694705.5528                STO-SY =     2130867.6739     STORAGE         
                 WEL =  7559955151.7167                   WEL =    14961438.2252     WEL_0           
                 DRN = 24678047292.8234                   DRN =     6963945.3064     DRN_0           
                 RCH =           0.0000                   RCH =           0.0000     RCH_0           

           TOTAL OUT = 41075697150.0929             TOTAL OUT =    24056251.2055

            IN - OUT =        9218.9714              IN - OUT =       1.7846E-02

 PERCENT DISCREPANCY =           0.00     PERCENT DISCREPANCY =           0.00




         TIME SUMMARY AT END OF TIME STEP    1 IN STRESS PERIOD  693
                          TIME STEP LENGTH =    1.00000    
                        STRESS PERIOD TIME =    1.00000    
                     TOTAL SIMULATION TIME =    693.000    

end timestep


start timestep kper="694" kstp="1" mode="normal"


 OUTPUT CONTROL FOR STRESS PERIOD 694 IS REPEATED USING SETTINGS FROM A PREVIOUS STRESS PERIOD.


 STRESS PERIOD 694 IS TRANSIENT


 REUSING WELS FROM LAST STRESS PERIOD

 REUSING DRNS FROM LAST STRESS PERIOD

 REUSING RCHS FROM LAST STRESS PERIOD


  VOLUME BUDGET FOR ENTIRE MODEL AT END OF TIME STEP    1, STRESS PERIOD 694
  ---------------------------------------------------------------------------------------------------

     CUMULATIVE VOLUME      L**3       RATES FOR THIS TIME STEP      L**3/T          PACKAGE NAME    
     ------------------                 ------------------------                     ----------------

           IN:                                      IN:
           ---                                      ---
              STO-SS =           0.0000                STO-SS =           0.0000     STORAGE         
              STO-SY = 13442866158.1794                STO-SY =    15544412.9960     STORAGE         
                 WEL =           0.0000                   WEL =           0.0000     WEL_0           
                 DRN =           0.0000                   DRN =           0.0000     DRN_0           
                 RCH = 27656428945.5762                   RCH =     8044321.6953     RCH_0           

            TOTAL IN = 41099295103.7556              TOTAL IN =    23588734.6913

          OUT:                                     OUT:
          ----                                     ----
              STO-SS =           0.0000                STO-SS =           0.0000     STORAGE         
              STO-SY =  8840296829.9302                STO-SY =     2602124.3775     STORAGE         
                 WEL =  7573643058.3230                   WEL =    13687906.6063     WEL_0           
                 DRN = 24685345983.4933                   DRN =     7298690.6699     DRN_0           
                 RCH =           0.0000                   RCH =           0.0000     RCH_0           

           TOTAL OUT = 41099285871.7466             TOTAL OUT =    23588721.6537

            IN - OUT =        9232.0090              IN - OUT =          13.0376

 PERCENT DISCREPANCY =           0.00     PERCENT DISCREPANCY =           0.00




         TIME SUMMARY AT END OF TIME STEP    1 IN STRESS PERIOD  694
                          TIME STEP LENGTH =    1.00000    
                        STRESS PERIOD TIME =    1.00000    
                     TOTAL SIMULATION TIME =    694.000    

end timestep


start timestep kper="695" kstp="1" mode="normal"


 OUTPUT CONTROL FOR STRESS PERIOD 695 IS REPEATED USING SETTINGS FROM A PREVIOUS STRESS PERIOD.


 STRESS PERIOD 695 IS TRANSIENT


 REUSING WELS FROM LAST STRESS PERIOD

 REUSING DRNS FROM LAST STRESS PERIOD

 REUSING RCHS FROM LAST STRESS PERIOD


  VOLUME BUDGET FOR ENTIRE MODEL AT END OF TIME STEP    1, STRESS PERIOD 695
  ---------------------------------------------------------------------------------------------------

     CUMULATIVE VOLUME      L**3       RATES FOR THIS TIME STEP      L**3/T          PACKAGE NAME    
     ------------------                 ------------------------                     ----------------

           IN:                                      IN:
           ---                                      ---
              STO-SS =           0.0000                STO-SS =           0.0000     STORAGE         
              STO-SY = 13450312445.6876                STO-SY =     7446287.5082     STORAGE         
                 WEL =           0.0000                   WEL =           0.0000     WEL_0           
                 DRN =           0.0000                   DRN =           0.0000     DRN_0           
                 RCH = 27708565816.3471                   RCH =    52136870.7709     RCH_0           

            TOTAL IN = 41158878262.0347              TOTAL IN =    59583158.2792

          OUT:                                     OUT:
          ----                                     ----
              STO-SS =           0.0000                STO-SS =           0.0000     STORAGE         
              STO-SY =  8880799367.0888                STO-SY =    40502537.1586     STORAGE         
                 WEL =  7584398155.6379                   WEL =    10755097.3149     WEL_0           
                 DRN = 24693671496.3598                   DRN =     8325512.8665     DRN_0           
                 RCH =           0.0000                   RCH =           0.0000     RCH_0           

           TOTAL OUT = 41158869019.0866             TOTAL OUT =    59583147.3400

            IN - OUT =        9242.9481              IN - OUT =          10.9391

 PERCENT DISCREPANCY =           0.00     PERCENT DISCREPANCY =           0.00




         TIME SUMMARY AT END OF TIME STEP    1 IN STRESS PERIOD  695
                          TIME STEP LENGTH =    1.00000    
                        STRESS PERIOD TIME =    1.00000    
                     TOTAL SIMULATION TIME =    695.000    

end timestep


start timestep kper="696" kstp="1" mode="normal"


 OUTPUT CONTROL FOR STRESS PERIOD 696 IS REPEATED USING SETTINGS FROM A PREVIOUS STRESS PERIOD.


 STRESS PERIOD 696 IS TRANSIENT


 REUSING WELS FROM LAST STRESS PERIOD

 REUSING DRNS FROM LAST STRESS PERIOD

 REUSING RCHS FROM LAST STRESS PERIOD


  VOLUME BUDGET FOR ENTIRE MODEL AT END OF TIME STEP    1, STRESS PERIOD 696
  ---------------------------------------------------------------------------------------------------

     CUMULATIVE VOLUME      L**3       RATES FOR THIS TIME STEP      L**3/T          PACKAGE NAME    
     ------------------                 ------------------------                     ----------------

           IN:                                      IN:
           ---                                      ---
              STO-SS =           0.0000                STO-SS =           0.0000     STORAGE         
              STO-SY = 13463944696.6723                STO-SY =    13632250.9847     STORAGE         
                 WEL =           0.0000                   WEL =           0.0000     WEL_0           
                 DRN =           0.0000                   DRN =           0.0000     DRN_0           
                 RCH = 27717175197.5379                   RCH =     8609381.1908     RCH_0           

            TOTAL IN = 41181119894.2101              TOTAL IN =    22241632.1754

          OUT:                                     OUT:
          ----                                     ----
              STO-SS =           0.0000                STO-SS =           0.0000     STORAGE         
              STO-SY =  8883838186.5285                STO-SY =     3038819.4397     STORAGE         
                 WEL =  7596061548.8844                   WEL =    11663393.2464     WEL_0           
                 DRN = 24701210903.4882                   DRN =     7539407.1284     DRN_0           
                 RCH =           0.0000                   RCH =           0.0000     RCH_0           

           TOTAL OUT = 41181110638.9011             TOTAL OUT =    22241619.8146

            IN - OUT =        9255.3090              IN - OUT =          12.3609

 PERCENT DISCREPANCY =           0.00     PERCENT DISCREPANCY =           0.00




         TIME SUMMARY AT END OF TIME STEP    1 IN STRESS PERIOD  696
                          TIME STEP LENGTH =    1.00000    
                        STRESS PERIOD TIME =    1.00000    
                     TOTAL SIMULATION TIME =    696.000    

end timestep


start timestep kper="697" kstp="1" mode="normal"


 OUTPUT CONTROL FOR STRESS PERIOD 697 IS REPEATED USING SETTINGS FROM A PREVIOUS STRESS PERIOD.


 STRESS PERIOD 697 IS TRANSIENT


 REUSING WELS FROM LAST STRESS PERIOD

 REUSING DRNS FROM LAST STRESS PERIOD

 REUSING RCHS FROM LAST STRESS PERIOD


  VOLUME BUDGET FOR ENTIRE MODEL AT END OF TIME STEP    1, STRESS PERIOD 697
  ---------------------------------------------------------------------------------------------------

     CUMULATIVE VOLUME      L**3       RATES FOR THIS TIME STEP      L**3/T          PACKAGE NAME    
     ------------------                 ------------------------                     ----------------

           IN:                                      IN:
           ---                                      ---
              STO-SS =           0.0000                STO-SS =           0.0000     STORAGE         
              STO-SY = 13479180633.0658                STO-SY =    15235936.3936     STORAGE         
                 WEL =           0.0000                   WEL =           0.0000     WEL_0           
                 DRN =           0.0000                   DRN =           0.0000     DRN_0           
                 RCH = 27726248205.0709                   RCH =     9073007.5331     RCH_0           

            TOTAL IN = 41205428838.1368              TOTAL IN =    24308943.9266

          OUT:                                     OUT:
          ----                                     ----
              STO-SS =           0.0000                STO-SS =           0.0000     STORAGE         
              STO-SY =  8886670428.0065                STO-SY =     2832241.4779     STORAGE         
                 WEL =  7610532475.5674                   WEL =    14470926.6830     WEL_0           
                 DRN = 24708216679.1330                   DRN =     7005775.6447     DRN_0           
                 RCH =           0.0000                   RCH =           0.0000     RCH_0           

           TOTAL OUT = 41205419582.7068             TOTAL OUT =    24308943.8057

            IN - OUT =        9255.4300              IN - OUT =           0.1210

 PERCENT DISCREPANCY =           0.00     PERCENT DISCREPANCY =           0.00




         TIME SUMMARY AT END OF TIME STEP    1 IN STRESS PERIOD  697
                          TIME STEP LENGTH =    1.00000    
                        STRESS PERIOD TIME =    1.00000    
                     TOTAL SIMULATION TIME =    697.000    

end timestep


start timestep kper="698" kstp="1" mode="normal"


 OUTPUT CONTROL FOR STRESS PERIOD 698 IS REPEATED USING SETTINGS FROM A PREVIOUS STRESS PERIOD.


 STRESS PERIOD 698 IS TRANSIENT


 REUSING WELS FROM LAST STRESS PERIOD

 REUSING DRNS FROM LAST STRESS PERIOD

 REUSING RCHS FROM LAST STRESS PERIOD


  VOLUME BUDGET FOR ENTIRE MODEL AT END OF TIME STEP    1, STRESS PERIOD 698
  ---------------------------------------------------------------------------------------------------

     CUMULATIVE VOLUME      L**3       RATES FOR THIS TIME STEP      L**3/T          PACKAGE NAME    
     ------------------                 ------------------------                     ----------------

           IN:                                      IN:
           ---                                      ---
              STO-SS =           0.0000                STO-SS =           0.0000     STORAGE         
              STO-SY = 13495563015.8542                STO-SY =    16382382.7883     STORAGE         
                 WEL =           0.0000                   WEL =           0.0000     WEL_0           
                 DRN =           0.0000                   DRN =           0.0000     DRN_0           
                 RCH = 27734667015.2451                   RCH =     8418810.1742     RCH_0           

            TOTAL IN = 41230230031.0993              TOTAL IN =    24801192.9625

          OUT:                                     OUT:
          ----                                     ----
              STO-SS =           0.0000                STO-SS =           0.0000     STORAGE         
              STO-SY =  8888683722.3306                STO-SY =     2013294.3242     STORAGE         
                 WEL =  7625895725.1345                   WEL =    15363249.5671     WEL_0           
                 DRN = 24715641328.1886                   DRN =     7424649.0556     DRN_0           
                 RCH =           0.0000                   RCH =           0.0000     RCH_0           

           TOTAL OUT = 41230220775.6537             TOTAL OUT =    24801192.9469

            IN - OUT =        9255.4456              IN - OUT =       1.5652E-02

 PERCENT DISCREPANCY =           0.00     PERCENT DISCREPANCY =           0.00




         TIME SUMMARY AT END OF TIME STEP    1 IN STRESS PERIOD  698
                          TIME STEP LENGTH =    1.00000    
                        STRESS PERIOD TIME =    1.00000    
                     TOTAL SIMULATION TIME =    698.000    

end timestep


start timestep kper="699" kstp="1" mode="normal"


 OUTPUT CONTROL FOR STRESS PERIOD 699 IS REPEATED USING SETTINGS FROM A PREVIOUS STRESS PERIOD.


 STRESS PERIOD 699 IS TRANSIENT


 REUSING WELS FROM LAST STRESS PERIOD

 REUSING DRNS FROM LAST STRESS PERIOD

 REUSING RCHS FROM LAST STRESS PERIOD


  VOLUME BUDGET FOR ENTIRE MODEL AT END OF TIME STEP    1, STRESS PERIOD 699
  ---------------------------------------------------------------------------------------------------

     CUMULATIVE VOLUME      L**3       RATES FOR THIS TIME STEP      L**3/T          PACKAGE NAME    
     ------------------                 ------------------------                     ----------------

           IN:                                      IN:
           ---                                      ---
              STO-SS =           0.0000                STO-SS =           0.0000     STORAGE         
              STO-SY = 13510773134.2952                STO-SY =    15210118.4411     STORAGE         
                 WEL =           0.0000                   WEL =           0.0000     WEL_0           
                 DRN =           0.0000                   DRN =           0.0000     DRN_0           
                 RCH = 27741765247.4530                   RCH =     7098232.2079     RCH_0           

            TOTAL IN = 41252538381.7482              TOTAL IN =    22308350.6489

          OUT:                                     OUT:
          ----                                     ----
              STO-SS =           0.0000                STO-SS =           0.0000     STORAGE         
              STO-SY =  8890615902.3150                STO-SY =     1932179.9844     STORAGE         
                 WEL =  7639424448.5429                   WEL =    13528723.4084     WEL_0           
                 DRN = 24722488775.7060                   DRN =     6847447.5174     DRN_0           
                 RCH =           0.0000                   RCH =           0.0000     RCH_0           

           TOTAL OUT = 41252529126.5640             TOTAL OUT =    22308350.9103

            IN - OUT =        9255.1843              IN - OUT =          -0.2613

 PERCENT DISCREPANCY =           0.00     PERCENT DISCREPANCY =          -0.00




         TIME SUMMARY AT END OF TIME STEP    1 IN STRESS PERIOD  699
                          TIME STEP LENGTH =    1.00000    
                        STRESS PERIOD TIME =    1.00000    
                     TOTAL SIMULATION TIME =    699.000    

end timestep


start timestep kper="700" kstp="1" mode="normal"


 OUTPUT CONTROL FOR STRESS PERIOD 700 IS REPEATED USING SETTINGS FROM A PREVIOUS STRESS PERIOD.


 STRESS PERIOD 700 IS TRANSIENT


 REUSING WELS FROM LAST STRESS PERIOD

 REUSING DRNS FROM LAST STRESS PERIOD

 REUSING RCHS FROM LAST STRESS PERIOD


  VOLUME BUDGET FOR ENTIRE MODEL AT END OF TIME STEP    1, STRESS PERIOD 700
  ---------------------------------------------------------------------------------------------------

     CUMULATIVE VOLUME      L**3       RATES FOR THIS TIME STEP      L**3/T          PACKAGE NAME    
     ------------------                 ------------------------                     ----------------

           IN:                                      IN:
           ---                                      ---
              STO-SS =           0.0000                STO-SS =           0.0000     STORAGE         
              STO-SY = 13526095021.1295                STO-SY =    15321886.8342     STORAGE         
                 WEL =           0.0000                   WEL =           0.0000     WEL_0           
                 DRN =           0.0000                   DRN =           0.0000     DRN_0           
                 RCH = 27749223474.9888                   RCH =     7458227.5358     RCH_0           

            TOTAL IN = 41275318496.1183              TOTAL IN =    22780114.3700

          OUT:                                     OUT:
          ----                                     ----
              STO-SS =           0.0000                STO-SS =           0.0000     STORAGE         
              STO-SY =  8892629878.4831                STO-SY =     2013976.1681     STORAGE         
                 WEL =  7652987265.7400                   WEL =    13562817.1971     WEL_0           
                 DRN = 24729692096.5590                   DRN =     7203320.8530     DRN_0           
                 RCH =           0.0000                   RCH =           0.0000     RCH_0           

           TOTAL OUT = 41275309240.7821             TOTAL OUT =    22780114.2182

            IN - OUT =        9255.3361              IN - OUT =           0.1518

 PERCENT DISCREPANCY =           0.00     PERCENT DISCREPANCY =           0.00




         TIME SUMMARY AT END OF TIME STEP    1 IN STRESS PERIOD  700
                          TIME STEP LENGTH =    1.00000    
                        STRESS PERIOD TIME =    1.00000    
                     TOTAL SIMULATION TIME =    700.000    

end timestep


start timestep kper="701" kstp="1" mode="normal"


 OUTPUT CONTROL FOR STRESS PERIOD 701 IS REPEATED USING SETTINGS FROM A PREVIOUS STRESS PERIOD.


 STRESS PERIOD 701 IS TRANSIENT


 REUSING WELS FROM LAST STRESS PERIOD

 REUSING DRNS FROM LAST STRESS PERIOD

 REUSING RCHS FROM LAST STRESS PERIOD


  VOLUME BUDGET FOR ENTIRE MODEL AT END OF TIME STEP    1, STRESS PERIOD 701
  ---------------------------------------------------------------------------------------------------

     CUMULATIVE VOLUME      L**3       RATES FOR THIS TIME STEP      L**3/T          PACKAGE NAME    
     ------------------                 ------------------------                     ----------------

           IN:                                      IN:
           ---                                      ---
              STO-SS =           0.0000                STO-SS =           0.0000     STORAGE         
              STO-SY = 13535948293.4026                STO-SY =     9853272.2731     STORAGE         
                 WEL =           0.0000                   WEL =           0.0000     WEL_0           
                 DRN =           0.0000                   DRN =           0.0000     DRN_0           
                 RCH = 27762281578.8944                   RCH =    13058103.9057     RCH_0           

            TOTAL IN = 41298229872.2970              TOTAL IN =    22911376.1787

          OUT:                                     OUT:
          ----                                     ----
              STO-SS =           0.0000                STO-SS =           0.0000     STORAGE         
              STO-SY =  8900149456.7320                STO-SY =     7519578.2488     STORAGE         
                 WEL =  7661298462.1077                   WEL =     8311196.3677     WEL_0           
                 DRN = 24736772692.0522                   DRN =     7080595.4932     DRN_0           
                 RCH =           0.0000                   RCH =           0.0000     RCH_0           

           TOTAL OUT = 41298220610.8919             TOTAL OUT =    22911370.1097

            IN - OUT =        9261.4051              IN - OUT =           6.0690

 PERCENT DISCREPANCY =           0.00     PERCENT DISCREPANCY =           0.00




         TIME SUMMARY AT END OF TIME STEP    1 IN STRESS PERIOD  701
                          TIME STEP LENGTH =    1.00000    
                        STRESS PERIOD TIME =    1.00000    
                     TOTAL SIMULATION TIME =    701.000    

end timestep


start timestep kper="702" kstp="1" mode="normal"


 OUTPUT CONTROL FOR STRESS PERIOD 702 IS REPEATED USING SETTINGS FROM A PREVIOUS STRESS PERIOD.


 STRESS PERIOD 702 IS TRANSIENT


 REUSING WELS FROM LAST STRESS PERIOD

 REUSING DRNS FROM LAST STRESS PERIOD

 REUSING RCHS FROM LAST STRESS PERIOD


  VOLUME BUDGET FOR ENTIRE MODEL AT END OF TIME STEP    1, STRESS PERIOD 702
  ---------------------------------------------------------------------------------------------------

     CUMULATIVE VOLUME      L**3       RATES FOR THIS TIME STEP      L**3/T          PACKAGE NAME    
     ------------------                 ------------------------                     ----------------

           IN:                                      IN:
           ---                                      ---
              STO-SS =           0.0000                STO-SS =           0.0000     STORAGE         
              STO-SY = 13550580849.6429                STO-SY =    14632556.2403     STORAGE         
                 WEL =           0.0000                   WEL =           0.0000     WEL_0           
                 DRN =           0.0000                   DRN =           0.0000     DRN_0           
                 RCH = 27770021332.5433                   RCH =     7739753.6489     RCH_0           

            TOTAL IN = 41320602182.1863              TOTAL IN =    22372309.8893

          OUT:                                     OUT:
          ----                                     ----
              STO-SS =           0.0000                STO-SS =           0.0000     STORAGE         
              STO-SY =  8902387253.5518                STO-SY =     2237796.8199     STORAGE         
                 WEL =  7674283697.2361                   WEL =    12985235.1285     WEL_0           
                 DRN = 24743921967.7840                   DRN =     7149275.7318     DRN_0           
                 RCH =           0.0000                   RCH =           0.0000     RCH_0           

           TOTAL OUT = 41320592918.5719             TOTAL OUT =    22372307.6801

            IN - OUT =        9263.6143              IN - OUT =           2.2092

 PERCENT DISCREPANCY =           0.00     PERCENT DISCREPANCY =           0.00




         TIME SUMMARY AT END OF TIME STEP    1 IN STRESS PERIOD  702
                          TIME STEP LENGTH =    1.00000    
                        STRESS PERIOD TIME =    1.00000    
                     TOTAL SIMULATION TIME =    702.000    

end timestep


start timestep kper="703" kstp="1" mode="normal"


 OUTPUT CONTROL FOR STRESS PERIOD 703 IS REPEATED USING SETTINGS FROM A PREVIOUS STRESS PERIOD.


 STRESS PERIOD 703 IS TRANSIENT


 REUSING WELS FROM LAST STRESS PERIOD

 REUSING DRNS FROM LAST STRESS PERIOD

 REUSING RCHS FROM LAST STRESS PERIOD


  VOLUME BUDGET FOR ENTIRE MODEL AT END OF TIME STEP    1, STRESS PERIOD 703
  ---------------------------------------------------------------------------------------------------

     CUMULATIVE VOLUME      L**3       RATES FOR THIS TIME STEP      L**3/T          PACKAGE NAME    
     ------------------                 ------------------------                     ----------------

           IN:                                      IN:
           ---                                      ---
              STO-SS =           0.0000                STO-SS =           0.0000     STORAGE         
              STO-SY = 13569020833.7143                STO-SY =    18439984.0714     STORAGE         
                 WEL =           0.0000                   WEL =           0.0000     WEL_0           
                 DRN =           0.0000                   DRN =           0.0000     DRN_0           
                 RCH = 27777686156.0904                   RCH =     7664823.5470     RCH_0           

            TOTAL IN = 41346706989.8047              TOTAL IN =    26104807.6184

          OUT:                                     OUT:
          ----                                     ----
              STO-SS =           0.0000                STO-SS =           0.0000     STORAGE         
              STO-SY =  8904169003.9317                STO-SY =     1781750.3799     STORAGE         
                 WEL =  7691870688.1149                   WEL =    17586990.8788     WEL_0           
                 DRN = 24750657965.8796                   DRN =     6735998.0956     DRN_0           
                 RCH =           0.0000                   RCH =           0.0000     RCH_0           

           TOTAL OUT = 41346697657.9262             TOTAL OUT =    26104739.3542

            IN - OUT =        9331.8785              IN - OUT =          68.2642

 PERCENT DISCREPANCY =           0.00     PERCENT DISCREPANCY =           0.00




         TIME SUMMARY AT END OF TIME STEP    1 IN STRESS PERIOD  703
                          TIME STEP LENGTH =    1.00000    
                        STRESS PERIOD TIME =    1.00000    
                     TOTAL SIMULATION TIME =    703.000    

end timestep


start timestep kper="704" kstp="1" mode="normal"


 OUTPUT CONTROL FOR STRESS PERIOD 704 IS REPEATED USING SETTINGS FROM A PREVIOUS STRESS PERIOD.


 STRESS PERIOD 704 IS TRANSIENT


 REUSING WELS FROM LAST STRESS PERIOD

 REUSING DRNS FROM LAST STRESS PERIOD

 REUSING RCHS FROM LAST STRESS PERIOD


  VOLUME BUDGET FOR ENTIRE MODEL AT END OF TIME STEP    1, STRESS PERIOD 704
  ---------------------------------------------------------------------------------------------------

     CUMULATIVE VOLUME      L**3       RATES FOR THIS TIME STEP      L**3/T          PACKAGE NAME    
     ------------------                 ------------------------                     ----------------

           IN:                                      IN:
           ---                                      ---
              STO-SS =           0.0000                STO-SS =           0.0000     STORAGE         
              STO-SY = 13584729319.4799                STO-SY =    15708485.7656     STORAGE         
                 WEL =           0.0000                   WEL =           0.0000     WEL_0           
                 DRN =           0.0000                   DRN =           0.0000     DRN_0           
                 RCH = 27785007718.1811                   RCH =     7321562.0908     RCH_0           

            TOTAL IN = 41369737037.6611              TOTAL IN =    23030047.8564

          OUT:                                     OUT:
          ----                                     ----
              STO-SS =           0.0000                STO-SS =           0.0000     STORAGE         
              STO-SY =  8905958725.4989                STO-SY =     1789721.5672     STORAGE         
                 WEL =  7706016356.6242                   WEL =    14145668.5094     WEL_0           
                 DRN = 24757752624.2561                   DRN =     7094658.3765     DRN_0           
                 RCH =           0.0000                   RCH =           0.0000     RCH_0           

           TOTAL OUT = 41369727706.3793             TOTAL OUT =    23030048.4531

            IN - OUT =        9331.2818              IN - OUT =          -0.5967

 PERCENT DISCREPANCY =           0.00     PERCENT DISCREPANCY =          -0.00




         TIME SUMMARY AT END OF TIME STEP    1 IN STRESS PERIOD  704
                          TIME STEP LENGTH =    1.00000    
                        STRESS PERIOD TIME =    1.00000    
                     TOTAL SIMULATION TIME =    704.000    

end timestep


start timestep kper="705" kstp="1" mode="normal"


 OUTPUT CONTROL FOR STRESS PERIOD 705 IS REPEATED USING SETTINGS FROM A PREVIOUS STRESS PERIOD.


 STRESS PERIOD 705 IS TRANSIENT


 REUSING WELS FROM LAST STRESS PERIOD

 REUSING DRNS FROM LAST STRESS PERIOD

 REUSING RCHS FROM LAST STRESS PERIOD


  VOLUME BUDGET FOR ENTIRE MODEL AT END OF TIME STEP    1, STRESS PERIOD 705
  ---------------------------------------------------------------------------------------------------

     CUMULATIVE VOLUME      L**3       RATES FOR THIS TIME STEP      L**3/T          PACKAGE NAME    
     ------------------                 ------------------------                     ----------------

           IN:                                      IN:
           ---                                      ---
              STO-SS =           0.0000                STO-SS =           0.0000     STORAGE         
              STO-SY = 13598889927.9511                STO-SY =    14160608.4712     STORAGE         
                 WEL =           0.0000                   WEL =           0.0000     WEL_0           
                 DRN =           0.0000                   DRN =           0.0000     DRN_0           
                 RCH = 27791338035.1976                   RCH =     6330317.0164     RCH_0           

            TOTAL IN = 41390227963.1487              TOTAL IN =    20490925.4876

          OUT:                                     OUT:
          ----                                     ----
              STO-SS =           0.0000                STO-SS =           0.0000     STORAGE         
              STO-SY =  8907957121.7734                STO-SY =     1998396.2744     STORAGE         
                 WEL =  7717908010.7425                   WEL =    11891654.1183     WEL_0           
                 DRN = 24764353499.4456                   DRN =     6600875.1895     DRN_0           
                 RCH =           0.0000                   RCH =           0.0000     RCH_0           

           TOTAL OUT = 41390218631.9615             TOTAL OUT =    20490925.5823

            IN - OUT =        9331.1871              IN - OUT =      -9.4697E-02

 PERCENT DISCREPANCY =           0.00     PERCENT DISCREPANCY =          -0.00




         TIME SUMMARY AT END OF TIME STEP    1 IN STRESS PERIOD  705
                          TIME STEP LENGTH =    1.00000    
                        STRESS PERIOD TIME =    1.00000    
                     TOTAL SIMULATION TIME =    705.000    

end timestep


start timestep kper="706" kstp="1" mode="normal"


 OUTPUT CONTROL FOR STRESS PERIOD 706 IS REPEATED USING SETTINGS FROM A PREVIOUS STRESS PERIOD.


 STRESS PERIOD 706 IS TRANSIENT


 REUSING WELS FROM LAST STRESS PERIOD

 REUSING DRNS FROM LAST STRESS PERIOD

 REUSING RCHS FROM LAST STRESS PERIOD


  VOLUME BUDGET FOR ENTIRE MODEL AT END OF TIME STEP    1, STRESS PERIOD 706
  ---------------------------------------------------------------------------------------------------

     CUMULATIVE VOLUME      L**3       RATES FOR THIS TIME STEP      L**3/T          PACKAGE NAME    
     ------------------                 ------------------------                     ----------------

           IN:                                      IN:
           ---                                      ---
              STO-SS =           0.0000                STO-SS =           0.0000     STORAGE         
              STO-SY = 13613702726.1207                STO-SY =    14812798.1696     STORAGE         
                 WEL =           0.0000                   WEL =           0.0000     WEL_0           
                 DRN =           0.0000                   DRN =           0.0000     DRN_0           
                 RCH = 27797731715.8731                   RCH =     6393680.6756     RCH_0           

            TOTAL IN = 41411434441.9938              TOTAL IN =    21206478.8452

          OUT:                                     OUT:
          ----                                     ----
              STO-SS =           0.0000                STO-SS =           0.0000     STORAGE         
              STO-SY =  8909770707.5326                STO-SY =     1813585.7592     STORAGE         
                 WEL =  7730353793.4541                   WEL =    12445782.7115     WEL_0           
                 DRN = 24771300608.3841                   DRN =     6947108.9384     DRN_0           
                 RCH =           0.0000                   RCH =           0.0000     RCH_0           

           TOTAL OUT = 41411425109.3707             TOTAL OUT =    21206477.4092

            IN - OUT =        9332.6231              IN - OUT =           1.4360

 PERCENT DISCREPANCY =           0.00     PERCENT DISCREPANCY =           0.00




         TIME SUMMARY AT END OF TIME STEP    1 IN STRESS PERIOD  706
                          TIME STEP LENGTH =    1.00000    
                        STRESS PERIOD TIME =    1.00000    
                     TOTAL SIMULATION TIME =    706.000    

end timestep


start timestep kper="707" kstp="1" mode="normal"


 OUTPUT CONTROL FOR STRESS PERIOD 707 IS REPEATED USING SETTINGS FROM A PREVIOUS STRESS PERIOD.


 STRESS PERIOD 707 IS TRANSIENT


 REUSING WELS FROM LAST STRESS PERIOD

 REUSING DRNS FROM LAST STRESS PERIOD

 REUSING RCHS FROM LAST STRESS PERIOD


  VOLUME BUDGET FOR ENTIRE MODEL AT END OF TIME STEP    1, STRESS PERIOD 707
  ---------------------------------------------------------------------------------------------------

     CUMULATIVE VOLUME      L**3       RATES FOR THIS TIME STEP      L**3/T          PACKAGE NAME    
     ------------------                 ------------------------                     ----------------

           IN:                                      IN:
           ---                                      ---
              STO-SS =           0.0000                STO-SS =           0.0000     STORAGE         
              STO-SY = 13626974123.3592                STO-SY =    13271397.2385     STORAGE         
                 WEL =           0.0000                   WEL =           0.0000     WEL_0           
                 DRN =           0.0000                   DRN =           0.0000     DRN_0           
                 RCH = 27802924736.7871                   RCH =     5193020.9140     RCH_0           

            TOTAL IN = 41429898860.1464              TOTAL IN =    18464418.1525

          OUT:                                     OUT:
          ----                                     ----
              STO-SS =           0.0000                STO-SS =           0.0000     STORAGE         
              STO-SY =  8911682065.7629                STO-SY =     1911358.2304     STORAGE         
                 WEL =  7740325215.4434                   WEL =     9971421.9893     WEL_0           
                 DRN = 24777882240.2635                   DRN =     6581631.8795     DRN_0           
                 RCH =           0.0000                   RCH =           0.0000     RCH_0           

           TOTAL OUT = 41429889521.4698             TOTAL OUT =    18464412.0991

            IN - OUT =        9338.6766              IN - OUT =           6.0534

 PERCENT DISCREPANCY =           0.00     PERCENT DISCREPANCY =           0.00




         TIME SUMMARY AT END OF TIME STEP    1 IN STRESS PERIOD  707
                          TIME STEP LENGTH =    1.00000    
                        STRESS PERIOD TIME =    1.00000    
                     TOTAL SIMULATION TIME =    707.000    

end timestep


start timestep kper="708" kstp="1" mode="normal"


 OUTPUT CONTROL FOR STRESS PERIOD 708 IS REPEATED USING SETTINGS FROM A PREVIOUS STRESS PERIOD.


 STRESS PERIOD 708 IS TRANSIENT


 REUSING WELS FROM LAST STRESS PERIOD

 REUSING DRNS FROM LAST STRESS PERIOD

 REUSING RCHS FROM LAST STRESS PERIOD


  VOLUME BUDGET FOR ENTIRE MODEL AT END OF TIME STEP    1, STRESS PERIOD 708
  ---------------------------------------------------------------------------------------------------

     CUMULATIVE VOLUME      L**3       RATES FOR THIS TIME STEP      L**3/T          PACKAGE NAME    
     ------------------                 ------------------------                     ----------------

           IN:                                      IN:
           ---                                      ---
              STO-SS =           0.0000                STO-SS =           0.0000     STORAGE         
              STO-SY = 13641362317.7402                STO-SY =    14388194.3809     STORAGE         
                 WEL =           0.0000                   WEL =           0.0000     WEL_0           
                 DRN =           0.0000                   DRN =           0.0000     DRN_0           
                 RCH = 27811040833.2418                   RCH =     8116096.4547     RCH_0           

            TOTAL IN = 41452403150.9820              TOTAL IN =    22504290.8356

          OUT:                                     OUT:
          ----                                     ----
              STO-SS =           0.0000                STO-SS =           0.0000     STORAGE         
              STO-SY =  8914533220.4273                STO-SY =     2851154.6644     STORAGE         
                 WEL =  7753162118.6295                   WEL =    12836903.1862     WEL_0           
                 DRN = 24784698472.4150                   DRN =     6816232.1515     DRN_0           
                 RCH =           0.0000                   RCH =           0.0000     RCH_0           

           TOTAL OUT = 41452393811.4719             TOTAL OUT =    22504290.0020

            IN - OUT =        9339.5101              IN - OUT =           0.8336

 PERCENT DISCREPANCY =           0.00     PERCENT DISCREPANCY =           0.00




         TIME SUMMARY AT END OF TIME STEP    1 IN STRESS PERIOD  708
                          TIME STEP LENGTH =    1.00000    
                        STRESS PERIOD TIME =    1.00000    
                     TOTAL SIMULATION TIME =    708.000    

end timestep


start timestep kper="709" kstp="1" mode="normal"


 OUTPUT CONTROL FOR STRESS PERIOD 709 IS REPEATED USING SETTINGS FROM A PREVIOUS STRESS PERIOD.


 STRESS PERIOD 709 IS TRANSIENT


 REUSING WELS FROM LAST STRESS PERIOD

 REUSING DRNS FROM LAST STRESS PERIOD

 REUSING RCHS FROM LAST STRESS PERIOD


  VOLUME BUDGET FOR ENTIRE MODEL AT END OF TIME STEP    1, STRESS PERIOD 709
  ---------------------------------------------------------------------------------------------------

     CUMULATIVE VOLUME      L**3       RATES FOR THIS TIME STEP      L**3/T          PACKAGE NAME    
     ------------------                 ------------------------                     ----------------

           IN:                                      IN:
           ---                                      ---
              STO-SS =           0.0000                STO-SS =           0.0000     STORAGE         
              STO-SY = 13657752894.9215                STO-SY =    16390577.1813     STORAGE         
                 WEL =           0.0000                   WEL =           0.0000     WEL_0           
                 DRN =           0.0000                   DRN =           0.0000     DRN_0           
                 RCH = 27817831512.7595                   RCH =     6790679.5177     RCH_0           

            TOTAL IN = 41475584407.6810              TOTAL IN =    23181256.6990

          OUT:                                     OUT:
          ----                                     ----
              STO-SS =           0.0000                STO-SS =           0.0000     STORAGE         
              STO-SY =  8916215538.7122                STO-SY =     1682318.2849     STORAGE         
                 WEL =  7768167225.6851                   WEL =    15005107.0556     WEL_0           
                 DRN = 24791192303.8478                   DRN =     6493831.4328     DRN_0           
                 RCH =           0.0000                   RCH =           0.0000     RCH_0           

           TOTAL OUT = 41475575068.2452             TOTAL OUT =    23181256.7733

            IN - OUT =        9339.4359              IN - OUT =      -7.4287E-02

 PERCENT DISCREPANCY =           0.00     PERCENT DISCREPANCY =          -0.00




         TIME SUMMARY AT END OF TIME STEP    1 IN STRESS PERIOD  709
                          TIME STEP LENGTH =    1.00000    
                        STRESS PERIOD TIME =    1.00000    
                     TOTAL SIMULATION TIME =    709.000    

end timestep


start timestep kper="710" kstp="1" mode="normal"


 OUTPUT CONTROL FOR STRESS PERIOD 710 IS REPEATED USING SETTINGS FROM A PREVIOUS STRESS PERIOD.


 STRESS PERIOD 710 IS TRANSIENT


 REUSING WELS FROM LAST STRESS PERIOD

 REUSING DRNS FROM LAST STRESS PERIOD

 REUSING RCHS FROM LAST STRESS PERIOD


  VOLUME BUDGET FOR ENTIRE MODEL AT END OF TIME STEP    1, STRESS PERIOD 710
  ---------------------------------------------------------------------------------------------------

     CUMULATIVE VOLUME      L**3       RATES FOR THIS TIME STEP      L**3/T          PACKAGE NAME    
     ------------------                 ------------------------                     ----------------

           IN:                                      IN:
           ---                                      ---
              STO-SS =           0.0000                STO-SS =           0.0000     STORAGE         
              STO-SY = 13674468398.9977                STO-SY =    16715504.0761     STORAGE         
                 WEL =           0.0000                   WEL =           0.0000     WEL_0           
                 DRN =           0.0000                   DRN =           0.0000     DRN_0           
                 RCH = 27825241004.6960                   RCH =     7409491.9365     RCH_0           

            TOTAL IN = 41499709403.6936              TOTAL IN =    24124996.0126

          OUT:                                     OUT:
          ----                                     ----
              STO-SS =           0.0000                STO-SS =           0.0000     STORAGE         
              STO-SY =  8917968135.1120                STO-SY =     1752596.3998     STORAGE         
                 WEL =  7783757254.6475                   WEL =    15590028.9624     WEL_0           
                 DRN = 24797974674.0401                   DRN =     6782370.1923     DRN_0           
                 RCH =           0.0000                   RCH =           0.0000     RCH_0           

           TOTAL OUT = 41499700063.7997             TOTAL OUT =    24124995.5545

            IN - OUT =        9339.8939              IN - OUT =           0.4581

 PERCENT DISCREPANCY =           0.00     PERCENT DISCREPANCY =           0.00




         TIME SUMMARY AT END OF TIME STEP    1 IN STRESS PERIOD  710
                          TIME STEP LENGTH =    1.00000    
                        STRESS PERIOD TIME =    1.00000    
                     TOTAL SIMULATION TIME =    710.000    

end timestep


start timestep kper="711" kstp="1" mode="normal"


 OUTPUT CONTROL FOR STRESS PERIOD 711 IS REPEATED USING SETTINGS FROM A PREVIOUS STRESS PERIOD.


 STRESS PERIOD 711 IS TRANSIENT


 REUSING WELS FROM LAST STRESS PERIOD

 REUSING DRNS FROM LAST STRESS PERIOD

 REUSING RCHS FROM LAST STRESS PERIOD


  VOLUME BUDGET FOR ENTIRE MODEL AT END OF TIME STEP    1, STRESS PERIOD 711
  ---------------------------------------------------------------------------------------------------

     CUMULATIVE VOLUME      L**3       RATES FOR THIS TIME STEP      L**3/T          PACKAGE NAME    
     ------------------                 ------------------------                     ----------------

           IN:                                      IN:
           ---                                      ---
              STO-SS =           0.0000                STO-SS =           0.0000     STORAGE         
              STO-SY = 13692105137.6623                STO-SY =    17636738.6647     STORAGE         
                 WEL =           0.0000                   WEL =           0.0000     WEL_0           
                 DRN =           0.0000                   DRN =           0.0000     DRN_0           
                 RCH = 27832265028.9707                   RCH =     7024024.2747     RCH_0           

            TOTAL IN = 41524370166.6330              TOTAL IN =    24660762.9394

          OUT:                                     OUT:
          ----                                     ----
              STO-SS =           0.0000                STO-SS =           0.0000     STORAGE         
              STO-SY =  8919574192.3789                STO-SY =     1606057.2669     STORAGE         
                 WEL =  7800402656.4809                   WEL =    16645401.8334     WEL_0           
                 DRN = 24804383979.2322                   DRN =     6409305.1920     DRN_0           
                 RCH =           0.0000                   RCH =           0.0000     RCH_0           

           TOTAL OUT = 41524360828.0920             TOTAL OUT =    24660764.2923

            IN - OUT =        9338.5411              IN - OUT =          -1.3529

 PERCENT DISCREPANCY =           0.00     PERCENT DISCREPANCY =          -0.00




         TIME SUMMARY AT END OF TIME STEP    1 IN STRESS PERIOD  711
                          TIME STEP LENGTH =    1.00000    
                        STRESS PERIOD TIME =    1.00000    
                     TOTAL SIMULATION TIME =    711.000    

end timestep


start timestep kper="712" kstp="1" mode="normal"


 OUTPUT CONTROL FOR STRESS PERIOD 712 IS REPEATED USING SETTINGS FROM A PREVIOUS STRESS PERIOD.


 STRESS PERIOD 712 IS TRANSIENT


 REUSING WELS FROM LAST STRESS PERIOD

 REUSING DRNS FROM LAST STRESS PERIOD

 REUSING RCHS FROM LAST STRESS PERIOD


  VOLUME BUDGET FOR ENTIRE MODEL AT END OF TIME STEP    1, STRESS PERIOD 712
  ---------------------------------------------------------------------------------------------------

     CUMULATIVE VOLUME      L**3       RATES FOR THIS TIME STEP      L**3/T          PACKAGE NAME    
     ------------------                 ------------------------                     ----------------

           IN:                                      IN:
           ---                                      ---
              STO-SS =           0.0000                STO-SS =           0.0000     STORAGE         
              STO-SY = 13706871344.0768                STO-SY =    14766206.4145     STORAGE         
                 WEL =           0.0000                   WEL =           0.0000     WEL_0           
                 DRN =           0.0000                   DRN =           0.0000     DRN_0           
                 RCH = 27838343122.0098                   RCH =     6078093.0391     RCH_0           

            TOTAL IN = 41545214466.0866              TOTAL IN =    20844299.4536

          OUT:                                     OUT:
          ----                                     ----
              STO-SS =           0.0000                STO-SS =           0.0000     STORAGE         
              STO-SY =  8921368423.1380                STO-SY =     1794230.7592     STORAGE         
                 WEL =  7812763172.1436                   WEL =    12360515.6627     WEL_0           
                 DRN = 24811073519.3202                   DRN =     6689540.0880     DRN_0           
                 RCH =           0.0000                   RCH =           0.0000     RCH_0           

           TOTAL OUT = 41545205114.6018             TOTAL OUT =    20844286.5099

            IN - OUT =        9351.4848              IN - OUT =          12.9437

 PERCENT DISCREPANCY =           0.00     PERCENT DISCREPANCY =           0.00




         TIME SUMMARY AT END OF TIME STEP    1 IN STRESS PERIOD  712
                          TIME STEP LENGTH =    1.00000    
                        STRESS PERIOD TIME =    1.00000    
                     TOTAL SIMULATION TIME =    712.000    

end timestep


start timestep kper="713" kstp="1" mode="normal"


 OUTPUT CONTROL FOR STRESS PERIOD 713 IS REPEATED USING SETTINGS FROM A PREVIOUS STRESS PERIOD.


 STRESS PERIOD 713 IS TRANSIENT


 REUSING WELS FROM LAST STRESS PERIOD

 REUSING DRNS FROM LAST STRESS PERIOD

 REUSING RCHS FROM LAST STRESS PERIOD


  VOLUME BUDGET FOR ENTIRE MODEL AT END OF TIME STEP    1, STRESS PERIOD 713
  ---------------------------------------------------------------------------------------------------

     CUMULATIVE VOLUME      L**3       RATES FOR THIS TIME STEP      L**3/T          PACKAGE NAME    
     ------------------                 ------------------------                     ----------------

           IN:                                      IN:
           ---                                      ---
              STO-SS =           0.0000                STO-SS =           0.0000     STORAGE         
              STO-SY = 13720405139.2632                STO-SY =    13533795.1864     STORAGE         
                 WEL =           0.0000                   WEL =           0.0000     WEL_0           
                 DRN =           0.0000                   DRN =           0.0000     DRN_0           
                 RCH = 27843255436.0940                   RCH =     4912314.0842     RCH_0           

            TOTAL IN = 41563660575.3572              TOTAL IN =    18446109.2706

          OUT:                                     OUT:
          ----                                     ----
              STO-SS =           0.0000                STO-SS =           0.0000     STORAGE         
              STO-SY =  8923232671.7451                STO-SY =     1864248.6071     STORAGE         
                 WEL =  7823046871.4711                   WEL =    10283699.3275     WEL_0           
                 DRN = 24817371680.9032                   DRN =     6298161.5831     DRN_0           
                 RCH =           0.0000                   RCH =           0.0000     RCH_0           

           TOTAL OUT = 41563651224.1195             TOTAL OUT =    18446109.5177

            IN - OUT =        9351.2377              IN - OUT =          -0.2471

 PERCENT DISCREPANCY =           0.00     PERCENT DISCREPANCY =          -0.00




         TIME SUMMARY AT END OF TIME STEP    1 IN STRESS PERIOD  713
                          TIME STEP LENGTH =    1.00000    
                        STRESS PERIOD TIME =    1.00000    
                     TOTAL SIMULATION TIME =    713.000    

end timestep


start timestep kper="714" kstp="1" mode="normal"


 OUTPUT CONTROL FOR STRESS PERIOD 714 IS REPEATED USING SETTINGS FROM A PREVIOUS STRESS PERIOD.


 STRESS PERIOD 714 IS TRANSIENT


 REUSING WELS FROM LAST STRESS PERIOD

 REUSING DRNS FROM LAST STRESS PERIOD

 REUSING RCHS FROM LAST STRESS PERIOD


  VOLUME BUDGET FOR ENTIRE MODEL AT END OF TIME STEP    1, STRESS PERIOD 714
  ---------------------------------------------------------------------------------------------------

     CUMULATIVE VOLUME      L**3       RATES FOR THIS TIME STEP      L**3/T          PACKAGE NAME    
     ------------------                 ------------------------                     ----------------

           IN:                                      IN:
           ---                                      ---
              STO-SS =           0.0000                STO-SS =           0.0000     STORAGE         
              STO-SY = 13733178348.3288                STO-SY =    12773209.0656     STORAGE         
                 WEL =           0.0000                   WEL =           0.0000     WEL_0           
                 DRN =           0.0000                   DRN =           0.0000     DRN_0           
                 RCH = 27848216643.6924                   RCH =     4961207.5984     RCH_0           

            TOTAL IN = 41581394992.0212              TOTAL IN =    17734416.6640

          OUT:                                     OUT:
          ----                                     ----
              STO-SS =           0.0000                STO-SS =           0.0000     STORAGE         
              STO-SY =  8925227334.9107                STO-SY =     1994663.1656     STORAGE         
                 WEL =  7832164505.5963                   WEL =     9117634.1252     WEL_0           
                 DRN = 24823993793.5627                   DRN =     6622112.6594     DRN_0           
                 RCH =           0.0000                   RCH =           0.0000     RCH_0           

           TOTAL OUT = 41581385634.0697             TOTAL OUT =    17734409.9502

            IN - OUT =        9357.9515              IN - OUT =           6.7138

 PERCENT DISCREPANCY =           0.00     PERCENT DISCREPANCY =           0.00




         TIME SUMMARY AT END OF TIME STEP    1 IN STRESS PERIOD  714
                          TIME STEP LENGTH =    1.00000    
                        STRESS PERIOD TIME =    1.00000    
                     TOTAL SIMULATION TIME =    714.000    

end timestep


start timestep kper="715" kstp="1" mode="normal"


 OUTPUT CONTROL FOR STRESS PERIOD 715 IS REPEATED USING SETTINGS FROM A PREVIOUS STRESS PERIOD.


 STRESS PERIOD 715 IS TRANSIENT


 REUSING WELS FROM LAST STRESS PERIOD

 REUSING DRNS FROM LAST STRESS PERIOD

 REUSING RCHS FROM LAST STRESS PERIOD


  VOLUME BUDGET FOR ENTIRE MODEL AT END OF TIME STEP    1, STRESS PERIOD 715
  ---------------------------------------------------------------------------------------------------

     CUMULATIVE VOLUME      L**3       RATES FOR THIS TIME STEP      L**3/T          PACKAGE NAME    
     ------------------                 ------------------------                     ----------------

           IN:                                      IN:
           ---                                      ---
              STO-SS =           0.0000                STO-SS =           0.0000     STORAGE         
              STO-SY = 13742675419.4447                STO-SY =     9497071.1159     STORAGE         
                 WEL =           0.0000                   WEL =           0.0000     WEL_0           
                 DRN =           0.0000                   DRN =           0.0000     DRN_0           
                 RCH = 27867517086.9050                   RCH =    19300443.2125     RCH_0           

            TOTAL IN = 41610192506.3496              TOTAL IN =    28797514.3284

          OUT:                                     OUT:
          ----                                     ----
              STO-SS =           0.0000                STO-SS =           0.0000     STORAGE         
              STO-SY =  8937503767.7008                STO-SY =    12276432.7901     STORAGE         
                 WEL =  7842014313.4401                   WEL =     9849807.8438     WEL_0           
                 DRN = 24830665052.8807                   DRN =     6671259.3180     DRN_0           
                 RCH =           0.0000                   RCH =           0.0000     RCH_0           

           TOTAL OUT = 41610183134.0216             TOTAL OUT =    28797499.9520

            IN - OUT =        9372.3280              IN - OUT =          14.3765

 PERCENT DISCREPANCY =           0.00     PERCENT DISCREPANCY =           0.00




         TIME SUMMARY AT END OF TIME STEP    1 IN STRESS PERIOD  715
                          TIME STEP LENGTH =    1.00000    
                        STRESS PERIOD TIME =    1.00000    
                     TOTAL SIMULATION TIME =    715.000    

end timestep


start timestep kper="716" kstp="1" mode="normal"


 OUTPUT CONTROL FOR STRESS PERIOD 716 IS REPEATED USING SETTINGS FROM A PREVIOUS STRESS PERIOD.


 STRESS PERIOD 716 IS TRANSIENT


 REUSING WELS FROM LAST STRESS PERIOD

 REUSING DRNS FROM LAST STRESS PERIOD

 REUSING RCHS FROM LAST STRESS PERIOD


  VOLUME BUDGET FOR ENTIRE MODEL AT END OF TIME STEP    1, STRESS PERIOD 716
  ---------------------------------------------------------------------------------------------------

     CUMULATIVE VOLUME      L**3       RATES FOR THIS TIME STEP      L**3/T          PACKAGE NAME    
     ------------------                 ------------------------                     ----------------

           IN:                                      IN:
           ---                                      ---
              STO-SS =           0.0000                STO-SS =           0.0000     STORAGE         
              STO-SY = 13754938807.9849                STO-SY =    12263388.5402     STORAGE         
                 WEL =           0.0000                   WEL =           0.0000     WEL_0           
                 DRN =           0.0000                   DRN =           0.0000     DRN_0           
                 RCH = 27872024393.7186                   RCH =     4507306.8136     RCH_0           

            TOTAL IN = 41626963201.7035              TOTAL IN =    16770695.3539

          OUT:                                     OUT:
          ----                                     ----
              STO-SS =           0.0000                STO-SS =           0.0000     STORAGE         
              STO-SY =  8939609842.6318                STO-SY =     2106074.9310     STORAGE         
                 WEL =  7850032585.3320                   WEL =     8018271.8919     WEL_0           
                 DRN = 24837311395.9556                   DRN =     6646343.0749     DRN_0           
                 RCH =           0.0000                   RCH =           0.0000     RCH_0           

           TOTAL OUT = 41626953823.9194             TOTAL OUT =    16770689.8978

            IN - OUT =        9377.7841              IN - OUT =           5.4561

 PERCENT DISCREPANCY =           0.00     PERCENT DISCREPANCY =           0.00




         TIME SUMMARY AT END OF TIME STEP    1 IN STRESS PERIOD  716
                          TIME STEP LENGTH =    1.00000    
                        STRESS PERIOD TIME =    1.00000    
                     TOTAL SIMULATION TIME =    716.000    

end timestep


start timestep kper="717" kstp="1" mode="normal"


 OUTPUT CONTROL FOR STRESS PERIOD 717 IS REPEATED USING SETTINGS FROM A PREVIOUS STRESS PERIOD.


 STRESS PERIOD 717 IS TRANSIENT


 REUSING WELS FROM LAST STRESS PERIOD

 REUSING DRNS FROM LAST STRESS PERIOD

 REUSING RCHS FROM LAST STRESS PERIOD


  VOLUME BUDGET FOR ENTIRE MODEL AT END OF TIME STEP    1, STRESS PERIOD 717
  ---------------------------------------------------------------------------------------------------

     CUMULATIVE VOLUME      L**3       RATES FOR THIS TIME STEP      L**3/T          PACKAGE NAME    
     ------------------                 ------------------------                     ----------------

           IN:                                      IN:
           ---                                      ---
              STO-SS =           0.0000                STO-SS =           0.0000     STORAGE         
              STO-SY = 13767525964.2873                STO-SY =    12587156.3024     STORAGE         
                 WEL =           0.0000                   WEL =           0.0000     WEL_0           
                 DRN =           0.0000                   DRN =           0.0000     DRN_0           
                 RCH = 27876957460.0748                   RCH =     4933066.3562     RCH_0           

            TOTAL IN = 41644483424.3621              TOTAL IN =    17520222.6586

          OUT:                                     OUT:
          ----                                     ----
              STO-SS =           0.0000                STO-SS =           0.0000     STORAGE         
              STO-SY =  8941717464.2446                STO-SY =     2107621.6128     STORAGE         
                 WEL =  7859031471.4907                   WEL =     8998886.1587     WEL_0           
                 DRN = 24843725110.3828                   DRN =     6413714.4271     DRN_0           
                 RCH =           0.0000                   RCH =           0.0000     RCH_0           

           TOTAL OUT = 41644474046.1181             TOTAL OUT =    17520222.1987

            IN - OUT =        9378.2440              IN - OUT =           0.4599

 PERCENT DISCREPANCY =           0.00     PERCENT DISCREPANCY =           0.00




         TIME SUMMARY AT END OF TIME STEP    1 IN STRESS PERIOD  717
                          TIME STEP LENGTH =    1.00000    
                        STRESS PERIOD TIME =    1.00000    
                     TOTAL SIMULATION TIME =    717.000    

end timestep


start timestep kper="718" kstp="1" mode="normal"


 OUTPUT CONTROL FOR STRESS PERIOD 718 IS REPEATED USING SETTINGS FROM A PREVIOUS STRESS PERIOD.


 STRESS PERIOD 718 IS TRANSIENT


 REUSING WELS FROM LAST STRESS PERIOD

 REUSING DRNS FROM LAST STRESS PERIOD

 REUSING RCHS FROM LAST STRESS PERIOD


  VOLUME BUDGET FOR ENTIRE MODEL AT END OF TIME STEP    1, STRESS PERIOD 718
  ---------------------------------------------------------------------------------------------------

     CUMULATIVE VOLUME      L**3       RATES FOR THIS TIME STEP      L**3/T          PACKAGE NAME    
     ------------------                 ------------------------                     ----------------

           IN:                                      IN:
           ---                                      ---
              STO-SS =           0.0000                STO-SS =           0.0000     STORAGE         
              STO-SY = 13785056723.1277                STO-SY =    17530758.8403     STORAGE         
                 WEL =           0.0000                   WEL =           0.0000     WEL_0           
                 DRN =           0.0000                   DRN =           0.0000     DRN_0           
                 RCH = 27884989443.0834                   RCH =     8031983.0086     RCH_0           

            TOTAL IN = 41670046166.2111              TOTAL IN =    25562741.8490

          OUT:                                     OUT:
          ----                                     ----
              STO-SS =           0.0000                STO-SS =           0.0000     STORAGE         
              STO-SY =  8943474963.6139                STO-SY =     1757499.3693     STORAGE         
                 WEL =  7876569337.8551                   WEL =    17537866.3643     WEL_0           
                 DRN = 24849992489.2529                   DRN =     6267378.8702     DRN_0           
                 RCH =           0.0000                   RCH =           0.0000     RCH_0           

           TOTAL OUT = 41670036790.7219             TOTAL OUT =    25562744.6038

            IN - OUT =        9375.4892              IN - OUT =          -2.7548

 PERCENT DISCREPANCY =           0.00     PERCENT DISCREPANCY =          -0.00




         TIME SUMMARY AT END OF TIME STEP    1 IN STRESS PERIOD  718
                          TIME STEP LENGTH =    1.00000    
                        STRESS PERIOD TIME =    1.00000    
                     TOTAL SIMULATION TIME =    718.000    

end timestep


start timestep kper="719" kstp="1" mode="normal"


 OUTPUT CONTROL FOR STRESS PERIOD 719 IS REPEATED USING SETTINGS FROM A PREVIOUS STRESS PERIOD.


 STRESS PERIOD 719 IS TRANSIENT


 REUSING WELS FROM LAST STRESS PERIOD

 REUSING DRNS FROM LAST STRESS PERIOD

 REUSING RCHS FROM LAST STRESS PERIOD


  VOLUME BUDGET FOR ENTIRE MODEL AT END OF TIME STEP    1, STRESS PERIOD 719
  ---------------------------------------------------------------------------------------------------

     CUMULATIVE VOLUME      L**3       RATES FOR THIS TIME STEP      L**3/T          PACKAGE NAME    
     ------------------                 ------------------------                     ----------------

           IN:                                      IN:
           ---                                      ---
              STO-SS =           0.0000                STO-SS =           0.0000     STORAGE         
              STO-SY = 13799258703.8485                STO-SY =    14201980.7209     STORAGE         
                 WEL =           0.0000                   WEL =           0.0000     WEL_0           
                 DRN =           0.0000                   DRN =           0.0000     DRN_0           
                 RCH = 27891309860.5901                   RCH =     6320417.5067     RCH_0           

            TOTAL IN = 41690568564.4386              TOTAL IN =    20522398.2276

          OUT:                                     OUT:
          ----                                     ----
              STO-SS =           0.0000                STO-SS =           0.0000     STORAGE         
              STO-SY =  8945451319.6470                STO-SY =     1976356.0331     STORAGE         
                 WEL =  7888698937.9986                   WEL =    12129600.1436     WEL_0           
                 DRN = 24856408931.2731                   DRN =     6416442.0201     DRN_0           
                 RCH =           0.0000                   RCH =           0.0000     RCH_0           

           TOTAL OUT = 41690559188.9187             TOTAL OUT =    20522398.1968

            IN - OUT =        9375.5199              IN - OUT =       3.0785E-02

 PERCENT DISCREPANCY =           0.00     PERCENT DISCREPANCY =           0.00




         TIME SUMMARY AT END OF TIME STEP    1 IN STRESS PERIOD  719
                          TIME STEP LENGTH =    1.00000    
                        STRESS PERIOD TIME =    1.00000    
                     TOTAL SIMULATION TIME =    719.000    

end timestep


start timestep kper="720" kstp="1" mode="normal"


 OUTPUT CONTROL FOR STRESS PERIOD 720 IS REPEATED USING SETTINGS FROM A PREVIOUS STRESS PERIOD.


 STRESS PERIOD 720 IS TRANSIENT


 REUSING WELS FROM LAST STRESS PERIOD

 REUSING DRNS FROM LAST STRESS PERIOD

 REUSING RCHS FROM LAST STRESS PERIOD


  VOLUME BUDGET FOR ENTIRE MODEL AT END OF TIME STEP    1, STRESS PERIOD 720
  ---------------------------------------------------------------------------------------------------

     CUMULATIVE VOLUME      L**3       RATES FOR THIS TIME STEP      L**3/T          PACKAGE NAME    
     ------------------                 ------------------------                     ----------------

           IN:                                      IN:
           ---                                      ---
              STO-SS =           0.0000                STO-SS =           0.0000     STORAGE         
              STO-SY = 13811755377.7294                STO-SY =    12496673.8808     STORAGE         
                 WEL =           0.0000                   WEL =           0.0000     WEL_0           
                 DRN =           0.0000                   DRN =           0.0000     DRN_0           
                 RCH = 27896286915.4785                   RCH =     4977054.8884     RCH_0           

            TOTAL IN = 41708042293.2078              TOTAL IN =    17473728.7692

          OUT:                                     OUT:
          ----                                     ----
              STO-SS =           0.0000                STO-SS =           0.0000     STORAGE         
              STO-SY =  8947541952.8084                STO-SY =     2090633.1614     STORAGE         
                 WEL =  7897694623.6235                   WEL =     8995685.6249     WEL_0           
                 DRN = 24862796341.2269                   DRN =     6387409.9538     DRN_0           
                 RCH =           0.0000                   RCH =           0.0000     RCH_0           

           TOTAL OUT = 41708032917.6588             TOTAL OUT =    17473728.7401

            IN - OUT =        9375.5490              IN - OUT =       2.9103E-02

 PERCENT DISCREPANCY =           0.00     PERCENT DISCREPANCY =           0.00




         TIME SUMMARY AT END OF TIME STEP    1 IN STRESS PERIOD  720
                          TIME STEP LENGTH =    1.00000    
                        STRESS PERIOD TIME =    1.00000    
                     TOTAL SIMULATION TIME =    720.000    

end timestep


start timestep kper="721" kstp="1" mode="normal"


 OUTPUT CONTROL FOR STRESS PERIOD 721 IS REPEATED USING SETTINGS FROM A PREVIOUS STRESS PERIOD.


 STRESS PERIOD 721 IS TRANSIENT


 REUSING WELS FROM LAST STRESS PERIOD

 REUSING DRNS FROM LAST STRESS PERIOD

 REUSING RCHS FROM LAST STRESS PERIOD


  VOLUME BUDGET FOR ENTIRE MODEL AT END OF TIME STEP    1, STRESS PERIOD 721
  ---------------------------------------------------------------------------------------------------

     CUMULATIVE VOLUME      L**3       RATES FOR THIS TIME STEP      L**3/T          PACKAGE NAME    
     ------------------                 ------------------------                     ----------------

           IN:                                      IN:
           ---                                      ---
              STO-SS =           0.0000                STO-SS =           0.0000     STORAGE         
              STO-SY = 13828890143.1881                STO-SY =    17134765.4587     STORAGE         
                 WEL =           0.0000                   WEL =           0.0000     WEL_0           
                 DRN =           0.0000                   DRN =           0.0000     DRN_0           
                 RCH = 27902853994.7350                   RCH =     6567079.2565     RCH_0           

            TOTAL IN = 41731744137.9231              TOTAL IN =    23701844.7152

          OUT:                                     OUT:
          ----                                     ----
              STO-SS =           0.0000                STO-SS =           0.0000     STORAGE         
              STO-SY =  8949144006.8664                STO-SY =     1602054.0580     STORAGE         
                 WEL =  7913607827.4606                   WEL =    15913203.8371     WEL_0           
                 DRN = 24868982928.0403                   DRN =     6186586.8134     DRN_0           
                 RCH =           0.0000                   RCH =           0.0000     RCH_0           

           TOTAL OUT = 41731734762.3673             TOTAL OUT =    23701844.7085

            IN - OUT =        9375.5557              IN - OUT =       6.7011E-03

 PERCENT DISCREPANCY =           0.00     PERCENT DISCREPANCY =           0.00




         TIME SUMMARY AT END OF TIME STEP    1 IN STRESS PERIOD  721
                          TIME STEP LENGTH =    1.00000    
                        STRESS PERIOD TIME =    1.00000    
                     TOTAL SIMULATION TIME =    721.000    

end timestep


start timestep kper="722" kstp="1" mode="normal"


 OUTPUT CONTROL FOR STRESS PERIOD 722 IS REPEATED USING SETTINGS FROM A PREVIOUS STRESS PERIOD.


 STRESS PERIOD 722 IS TRANSIENT


 REUSING WELS FROM LAST STRESS PERIOD

 REUSING DRNS FROM LAST STRESS PERIOD

 REUSING RCHS FROM LAST STRESS PERIOD


  VOLUME BUDGET FOR ENTIRE MODEL AT END OF TIME STEP    1, STRESS PERIOD 722
  ---------------------------------------------------------------------------------------------------

     CUMULATIVE VOLUME      L**3       RATES FOR THIS TIME STEP      L**3/T          PACKAGE NAME    
     ------------------                 ------------------------                     ----------------

           IN:                                      IN:
           ---                                      ---
              STO-SS =           0.0000                STO-SS =           0.0000     STORAGE         
              STO-SY = 13846828056.8072                STO-SY =    17937913.6191     STORAGE         
                 WEL =           0.0000                   WEL =           0.0000     WEL_0           
                 DRN =           0.0000                   DRN =           0.0000     DRN_0           
                 RCH = 27910372910.2835                   RCH =     7518915.5485     RCH_0           

            TOTAL IN = 41757200967.0907              TOTAL IN =    25456829.1676

          OUT:                                     OUT:
          ----                                     ----
              STO-SS =           0.0000                STO-SS =           0.0000     STORAGE         
              STO-SY =  8950684579.9160                STO-SY =     1540573.0497     STORAGE         
                 WEL =  7931231474.2470                   WEL =    17623646.7864     WEL_0           
                 DRN = 24875275537.3620                   DRN =     6292609.3217     DRN_0           
                 RCH =           0.0000                   RCH =           0.0000     RCH_0           

           TOTAL OUT = 41757191591.5251             TOTAL OUT =    25456829.1577

            IN - OUT =        9375.5656              IN - OUT =       9.8725E-03

 PERCENT DISCREPANCY =           0.00     PERCENT DISCREPANCY =           0.00




         TIME SUMMARY AT END OF TIME STEP    1 IN STRESS PERIOD  722
                          TIME STEP LENGTH =    1.00000    
                        STRESS PERIOD TIME =    1.00000    
                     TOTAL SIMULATION TIME =    722.000    

end timestep


start timestep kper="723" kstp="1" mode="normal"


 OUTPUT CONTROL FOR STRESS PERIOD 723 IS REPEATED USING SETTINGS FROM A PREVIOUS STRESS PERIOD.


 STRESS PERIOD 723 IS TRANSIENT


 REUSING WELS FROM LAST STRESS PERIOD

 REUSING DRNS FROM LAST STRESS PERIOD

 REUSING RCHS FROM LAST STRESS PERIOD


  VOLUME BUDGET FOR ENTIRE MODEL AT END OF TIME STEP    1, STRESS PERIOD 723
  ---------------------------------------------------------------------------------------------------

     CUMULATIVE VOLUME      L**3       RATES FOR THIS TIME STEP      L**3/T          PACKAGE NAME    
     ------------------                 ------------------------                     ----------------

           IN:                                      IN:
           ---                                      ---
              STO-SS =           0.0000                STO-SS =           0.0000     STORAGE         
              STO-SY = 13865498580.2434                STO-SY =    18670523.4362     STORAGE         
                 WEL =           0.0000                   WEL =           0.0000     WEL_0           
                 DRN =           0.0000                   DRN =           0.0000     DRN_0           
                 RCH = 27917858449.9085                   RCH =     7485539.6250     RCH_0           

            TOTAL IN = 41783357030.1519              TOTAL IN =    26156063.0612

          OUT:                                     OUT:
          ----                                     ----
              STO-SS =           0.0000                STO-SS =           0.0000     STORAGE         
              STO-SY =  8952234047.8084                STO-SY =     1549467.8923     STORAGE         
                 WEL =  7949828689.1145                   WEL =    18597214.8675     WEL_0           
                 DRN = 24881284898.6938                   DRN =     6009361.3318     DRN_0           
                 RCH =           0.0000                   RCH =           0.0000     RCH_0           

           TOTAL OUT = 41783347635.6167             TOTAL OUT =    26156044.0916

            IN - OUT =        9394.5352              IN - OUT =          18.9695

 PERCENT DISCREPANCY =           0.00     PERCENT DISCREPANCY =           0.00




         TIME SUMMARY AT END OF TIME STEP    1 IN STRESS PERIOD  723
                          TIME STEP LENGTH =    1.00000    
                        STRESS PERIOD TIME =    1.00000    
                     TOTAL SIMULATION TIME =    723.000    

end timestep


start timestep kper="724" kstp="1" mode="normal"


 OUTPUT CONTROL FOR STRESS PERIOD 724 IS REPEATED USING SETTINGS FROM A PREVIOUS STRESS PERIOD.


 STRESS PERIOD 724 IS TRANSIENT


 REUSING WELS FROM LAST STRESS PERIOD

 REUSING DRNS FROM LAST STRESS PERIOD

 REUSING RCHS FROM LAST STRESS PERIOD


  VOLUME BUDGET FOR ENTIRE MODEL AT END OF TIME STEP    1, STRESS PERIOD 724
  ---------------------------------------------------------------------------------------------------

     CUMULATIVE VOLUME      L**3       RATES FOR THIS TIME STEP      L**3/T          PACKAGE NAME    
     ------------------                 ------------------------                     ----------------

           IN:                                      IN:
           ---                                      ---
              STO-SS =           0.0000                STO-SS =           0.0000     STORAGE         
              STO-SY = 13881318422.1868                STO-SY =    15819841.9434     STORAGE         
                 WEL =           0.0000                   WEL =           0.0000     WEL_0           
                 DRN =           0.0000                   DRN =           0.0000     DRN_0           
                 RCH = 27924259599.4742                   RCH =     6401149.5657     RCH_0           

            TOTAL IN = 41805578021.6609              TOTAL IN =    22220991.5091

          OUT:                                     OUT:
          ----                                     ----
              STO-SS =           0.0000                STO-SS =           0.0000     STORAGE         
              STO-SY =  8953861470.5721                STO-SY =     1627422.7638     STORAGE         
                 WEL =  7964194060.8849                   WEL =    14365371.7704     WEL_0           
                 DRN = 24887513079.4972                   DRN =     6228180.8034     DRN_0           
                 RCH =           0.0000                   RCH =           0.0000     RCH_0           

           TOTAL OUT = 41805568610.9543             TOTAL OUT =    22220975.3376

            IN - OUT =        9410.7066              IN - OUT =          16.1715

 PERCENT DISCREPANCY =           0.00     PERCENT DISCREPANCY =           0.00




         TIME SUMMARY AT END OF TIME STEP    1 IN STRESS PERIOD  724
                          TIME STEP LENGTH =    1.00000    
                        STRESS PERIOD TIME =    1.00000    
                     TOTAL SIMULATION TIME =    724.000    

end timestep


start timestep kper="725" kstp="1" mode="normal"


 OUTPUT CONTROL FOR STRESS PERIOD 725 IS REPEATED USING SETTINGS FROM A PREVIOUS STRESS PERIOD.


 STRESS PERIOD 725 IS TRANSIENT


 REUSING WELS FROM LAST STRESS PERIOD

 REUSING DRNS FROM LAST STRESS PERIOD

 REUSING RCHS FROM LAST STRESS PERIOD


  VOLUME BUDGET FOR ENTIRE MODEL AT END OF TIME STEP    1, STRESS PERIOD 725
  ---------------------------------------------------------------------------------------------------

     CUMULATIVE VOLUME      L**3       RATES FOR THIS TIME STEP      L**3/T          PACKAGE NAME    
     ------------------                 ------------------------                     ----------------

           IN:                                      IN:
           ---                                      ---
              STO-SS =           0.0000                STO-SS =           0.0000     STORAGE         
              STO-SY = 13896292491.1929                STO-SY =    14974069.0062     STORAGE         
                 WEL =           0.0000                   WEL =           0.0000     WEL_0           
                 DRN =           0.0000                   DRN =           0.0000     DRN_0           
                 RCH = 27929600050.6817                   RCH =     5340451.2075     RCH_0           

            TOTAL IN = 41825892541.8746              TOTAL IN =    20314520.2137

          OUT:                                     OUT:
          ----                                     ----
              STO-SS =           0.0000                STO-SS =           0.0000     STORAGE         
              STO-SY =  8955527212.4945                STO-SY =     1665741.9224     STORAGE         
                 WEL =  7976861632.5658                   WEL =    12667571.6809     WEL_0           
                 DRN = 24893494277.4407                   DRN =     5981197.9435     DRN_0           
                 RCH =           0.0000                   RCH =           0.0000     RCH_0           

           TOTAL OUT = 41825883122.5011             TOTAL OUT =    20314511.5468

            IN - OUT =        9419.3736              IN - OUT =           8.6669

 PERCENT DISCREPANCY =           0.00     PERCENT DISCREPANCY =           0.00




         TIME SUMMARY AT END OF TIME STEP    1 IN STRESS PERIOD  725
                          TIME STEP LENGTH =    1.00000    
                        STRESS PERIOD TIME =    1.00000    
                     TOTAL SIMULATION TIME =    725.000    

end timestep


start timestep kper="726" kstp="1" mode="normal"


 OUTPUT CONTROL FOR STRESS PERIOD 726 IS REPEATED USING SETTINGS FROM A PREVIOUS STRESS PERIOD.


 STRESS PERIOD 726 IS TRANSIENT


 REUSING WELS FROM LAST STRESS PERIOD

 REUSING DRNS FROM LAST STRESS PERIOD

 REUSING RCHS FROM LAST STRESS PERIOD


  VOLUME BUDGET FOR ENTIRE MODEL AT END OF TIME STEP    1, STRESS PERIOD 726
  ---------------------------------------------------------------------------------------------------

     CUMULATIVE VOLUME      L**3       RATES FOR THIS TIME STEP      L**3/T          PACKAGE NAME    
     ------------------                 ------------------------                     ----------------

           IN:                                      IN:
           ---                                      ---
              STO-SS =           0.0000                STO-SS =           0.0000     STORAGE         
              STO-SY = 13911461587.5346                STO-SY =    15169096.3417     STORAGE         
                 WEL =           0.0000                   WEL =           0.0000     WEL_0           
                 DRN =           0.0000                   DRN =           0.0000     DRN_0           
                 RCH = 27935722595.1332                   RCH =     6122544.4515     RCH_0           

            TOTAL IN = 41847184182.6678              TOTAL IN =    21291640.7931

          OUT:                                     OUT:
          ----                                     ----
              STO-SS =           0.0000                STO-SS =           0.0000     STORAGE         
              STO-SY =  8957215070.5219                STO-SY =     1687858.0273     STORAGE         
                 WEL =  7990362559.2703                   WEL =    13500926.7045     WEL_0           
                 DRN = 24899597118.2271                   DRN =     6102840.7863     DRN_0           
                 RCH =           0.0000                   RCH =           0.0000     RCH_0           

           TOTAL OUT = 41847174748.0192             TOTAL OUT =    21291625.5182

            IN - OUT =        9434.6485              IN - OUT =          15.2750

 PERCENT DISCREPANCY =           0.00     PERCENT DISCREPANCY =           0.00




         TIME SUMMARY AT END OF TIME STEP    1 IN STRESS PERIOD  726
                          TIME STEP LENGTH =    1.00000    
                        STRESS PERIOD TIME =    1.00000    
                     TOTAL SIMULATION TIME =    726.000    

end timestep


start timestep kper="727" kstp="1" mode="normal"


 OUTPUT CONTROL FOR STRESS PERIOD 727 IS REPEATED USING SETTINGS FROM A PREVIOUS STRESS PERIOD.


 STRESS PERIOD 727 IS TRANSIENT


 REUSING WELS FROM LAST STRESS PERIOD

 REUSING DRNS FROM LAST STRESS PERIOD

 REUSING RCHS FROM LAST STRESS PERIOD


  VOLUME BUDGET FOR ENTIRE MODEL AT END OF TIME STEP    1, STRESS PERIOD 727
  ---------------------------------------------------------------------------------------------------

     CUMULATIVE VOLUME      L**3       RATES FOR THIS TIME STEP      L**3/T          PACKAGE NAME    
     ------------------                 ------------------------                     ----------------

           IN:                                      IN:
           ---                                      ---
              STO-SS =           0.0000                STO-SS =           0.0000     STORAGE         
              STO-SY = 13923558319.9499                STO-SY =    12096732.4153     STORAGE         
                 WEL =           0.0000                   WEL =           0.0000     WEL_0           
                 DRN =           0.0000                   DRN =           0.0000     DRN_0           
                 RCH = 27941886853.3109                   RCH =     6164258.1777     RCH_0           

            TOTAL IN = 41865445173.2608              TOTAL IN =    18260990.5930

          OUT:                                     OUT:
          ----                                     ----
              STO-SS =           0.0000                STO-SS =           0.0000     STORAGE         
              STO-SY =  8960147670.4051                STO-SY =     2932599.8833     STORAGE         
                 WEL =  7999741509.8449                   WEL =     9378950.5746     WEL_0           
                 DRN = 24905546544.2016                   DRN =     5949425.9745     DRN_0           
                 RCH =           0.0000                   RCH =           0.0000     RCH_0           

           TOTAL OUT = 41865435724.4517             TOTAL OUT =    18260976.4324

            IN - OUT =        9448.8091              IN - OUT =          14.1606

 PERCENT DISCREPANCY =           0.00     PERCENT DISCREPANCY =           0.00




         TIME SUMMARY AT END OF TIME STEP    1 IN STRESS PERIOD  727
                          TIME STEP LENGTH =    1.00000    
                        STRESS PERIOD TIME =    1.00000    
                     TOTAL SIMULATION TIME =    727.000    

end timestep


start timestep kper="728" kstp="1" mode="normal"


 OUTPUT CONTROL FOR STRESS PERIOD 728 IS REPEATED USING SETTINGS FROM A PREVIOUS STRESS PERIOD.


 STRESS PERIOD 728 IS TRANSIENT


 REUSING WELS FROM LAST STRESS PERIOD

 REUSING DRNS FROM LAST STRESS PERIOD

 REUSING RCHS FROM LAST STRESS PERIOD


  VOLUME BUDGET FOR ENTIRE MODEL AT END OF TIME STEP    1, STRESS PERIOD 728
  ---------------------------------------------------------------------------------------------------

     CUMULATIVE VOLUME      L**3       RATES FOR THIS TIME STEP      L**3/T          PACKAGE NAME    
     ------------------                 ------------------------                     ----------------

           IN:                                      IN:
           ---                                      ---
              STO-SS =           0.0000                STO-SS =           0.0000     STORAGE         
              STO-SY = 13936420150.1099                STO-SY =    12861830.1601     STORAGE         
                 WEL =           0.0000                   WEL =           0.0000     WEL_0           
                 DRN =           0.0000                   DRN =           0.0000     DRN_0           
                 RCH = 27948008851.9874                   RCH =     6121998.6764     RCH_0           

            TOTAL IN = 41884429002.0973              TOTAL IN =    18983828.8365

          OUT:                                     OUT:
          ----                                     ----
              STO-SS =           0.0000                STO-SS =           0.0000     STORAGE         
              STO-SY =  8962554864.7505                STO-SY =     2407194.3453     STORAGE         
                 WEL =  8010083663.0441                   WEL =    10342153.1992     WEL_0           
                 DRN = 24911781025.4686                   DRN =     6234481.2670     DRN_0           
                 RCH =           0.0000                   RCH =           0.0000     RCH_0           

           TOTAL OUT = 41884419553.2632             TOTAL OUT =    18983828.8115

            IN - OUT =        9448.8341              IN - OUT =       2.4994E-02

 PERCENT DISCREPANCY =           0.00     PERCENT DISCREPANCY =           0.00




         TIME SUMMARY AT END OF TIME STEP    1 IN STRESS PERIOD  728
                          TIME STEP LENGTH =    1.00000    
                        STRESS PERIOD TIME =    1.00000    
                     TOTAL SIMULATION TIME =    728.000    

end timestep


start timestep kper="729" kstp="1" mode="normal"


 OUTPUT CONTROL FOR STRESS PERIOD 729 IS REPEATED USING SETTINGS FROM A PREVIOUS STRESS PERIOD.


 STRESS PERIOD 729 IS TRANSIENT


 REUSING WELS FROM LAST STRESS PERIOD

 REUSING DRNS FROM LAST STRESS PERIOD

 REUSING RCHS FROM LAST STRESS PERIOD


  VOLUME BUDGET FOR ENTIRE MODEL AT END OF TIME STEP    1, STRESS PERIOD 729
  ---------------------------------------------------------------------------------------------------

     CUMULATIVE VOLUME      L**3       RATES FOR THIS TIME STEP      L**3/T          PACKAGE NAME    
     ------------------                 ------------------------                     ----------------

           IN:                                      IN:
           ---                                      ---
              STO-SS =           0.0000                STO-SS =           0.0000     STORAGE         
              STO-SY = 13945878000.4316                STO-SY =     9457850.3217     STORAGE         
                 WEL =           0.0000                   WEL =           0.0000     WEL_0           
                 DRN =           0.0000                   DRN =           0.0000     DRN_0           
                 RCH = 27968883486.0873                   RCH =    20874634.1000     RCH_0           

            TOTAL IN = 41914761486.5190              TOTAL IN =    30332484.4217

          OUT:                                     OUT:
          ----                                     ----
              STO-SS =           0.0000                STO-SS =           0.0000     STORAGE         
              STO-SY =  8976219358.3758                STO-SY =    13664493.6253     STORAGE         
                 WEL =  8020476797.9183                   WEL =    10393134.8741     WEL_0           
                 DRN = 24918055870.8068                   DRN =     6274845.3383     DRN_0           
                 RCH =           0.0000                   RCH =           0.0000     RCH_0           

           TOTAL OUT = 41914752027.1009             TOTAL OUT =    30332473.8377

            IN - OUT =        9459.4181              IN - OUT =          10.5840

 PERCENT DISCREPANCY =           0.00     PERCENT DISCREPANCY =           0.00




         TIME SUMMARY AT END OF TIME STEP    1 IN STRESS PERIOD  729
                          TIME STEP LENGTH =    1.00000    
                        STRESS PERIOD TIME =    1.00000    
                     TOTAL SIMULATION TIME =    729.000    

end timestep


start timestep kper="730" kstp="1" mode="normal"


 OUTPUT CONTROL FOR STRESS PERIOD 730 IS REPEATED USING SETTINGS FROM A PREVIOUS STRESS PERIOD.


 STRESS PERIOD 730 IS TRANSIENT


 REUSING WELS FROM LAST STRESS PERIOD

 REUSING DRNS FROM LAST STRESS PERIOD

 REUSING RCHS FROM LAST STRESS PERIOD


  VOLUME BUDGET FOR ENTIRE MODEL AT END OF TIME STEP    1, STRESS PERIOD 730
  ---------------------------------------------------------------------------------------------------

     CUMULATIVE VOLUME      L**3       RATES FOR THIS TIME STEP      L**3/T          PACKAGE NAME    
     ------------------                 ------------------------                     ----------------

           IN:                                      IN:
           ---                                      ---
              STO-SS =           0.0000                STO-SS =           0.0000     STORAGE         
              STO-SY = 13959622035.3253                STO-SY =    13744034.8937     STORAGE         
                 WEL =           0.0000                   WEL =           0.0000     WEL_0           
                 DRN =           0.0000                   DRN =           0.0000     DRN_0           
                 RCH = 28013221712.1744                   RCH =    44338226.0871     RCH_0           

            TOTAL IN = 41972843747.4998              TOTAL IN =    58082260.9808

          OUT:                                     OUT:
          ----                                     ----
              STO-SS =           0.0000                STO-SS =           0.0000     STORAGE         
              STO-SY =  9010998829.1299                STO-SY =    34779470.7541     STORAGE         
                 WEL =  8037022368.5123                   WEL =    16545570.5940     WEL_0           
                 DRN = 24924813090.4046                   DRN =     6757219.5978     DRN_0           
                 RCH =           0.0000                   RCH =           0.0000     RCH_0           

           TOTAL OUT = 41972834288.0468             TOTAL OUT =    58082260.9459

            IN - OUT =        9459.4530              IN - OUT =       3.4951E-02

 PERCENT DISCREPANCY =           0.00     PERCENT DISCREPANCY =           0.00




         TIME SUMMARY AT END OF TIME STEP    1 IN STRESS PERIOD  730
                          TIME STEP LENGTH =    1.00000    
                        STRESS PERIOD TIME =    1.00000    
                     TOTAL SIMULATION TIME =    730.000    

end timestep


start timestep kper="731" kstp="1" mode="normal"


 OUTPUT CONTROL FOR STRESS PERIOD 731 IS REPEATED USING SETTINGS FROM A PREVIOUS STRESS PERIOD.


 STRESS PERIOD 731 IS TRANSIENT


 REUSING WELS FROM LAST STRESS PERIOD

 REUSING DRNS FROM LAST STRESS PERIOD

 REUSING RCHS FROM LAST STRESS PERIOD


  VOLUME BUDGET FOR ENTIRE MODEL AT END OF TIME STEP    1, STRESS PERIOD 731
  ---------------------------------------------------------------------------------------------------

     CUMULATIVE VOLUME      L**3       RATES FOR THIS TIME STEP      L**3/T          PACKAGE NAME    
     ------------------                 ------------------------                     ----------------

           IN:                                      IN:
           ---                                      ---
              STO-SS =           0.0000                STO-SS =           0.0000     STORAGE         
              STO-SY = 13972343298.1646                STO-SY =    12721262.8392     STORAGE         
                 WEL =           0.0000                   WEL =           0.0000     WEL_0           
                 DRN =           0.0000                   DRN =           0.0000     DRN_0           
                 RCH = 28021788119.0547                   RCH =     8566406.8803     RCH_0           

            TOTAL IN = 41994131417.2193              TOTAL IN =    21287669.7195

          OUT:                                     OUT:
          ----                                     ----
              STO-SS =           0.0000                STO-SS =           0.0000     STORAGE         
              STO-SY =  9015631491.1463                STO-SY =     4632662.0164     STORAGE         
                 WEL =  8047470330.1477                   WEL =    10447961.6354     WEL_0           
                 DRN = 24931020118.0012                   DRN =     6207027.5966     DRN_0           
                 RCH =           0.0000                   RCH =           0.0000     RCH_0           

           TOTAL OUT = 41994121939.2952             TOTAL OUT =    21287651.2484

            IN - OUT =        9477.9241              IN - OUT =          18.4711

 PERCENT DISCREPANCY =           0.00     PERCENT DISCREPANCY =           0.00




         TIME SUMMARY AT END OF TIME STEP    1 IN STRESS PERIOD  731
                          TIME STEP LENGTH =    1.00000    
                        STRESS PERIOD TIME =    1.00000    
                     TOTAL SIMULATION TIME =    731.000    

end timestep


start timestep kper="732" kstp="1" mode="normal"


 OUTPUT CONTROL FOR STRESS PERIOD 732 IS REPEATED USING SETTINGS FROM A PREVIOUS STRESS PERIOD.


 STRESS PERIOD 732 IS TRANSIENT


 REUSING WELS FROM LAST STRESS PERIOD

 REUSING DRNS FROM LAST STRESS PERIOD

 REUSING RCHS FROM LAST STRESS PERIOD


  VOLUME BUDGET FOR ENTIRE MODEL AT END OF TIME STEP    1, STRESS PERIOD 732
  ---------------------------------------------------------------------------------------------------

     CUMULATIVE VOLUME      L**3       RATES FOR THIS TIME STEP      L**3/T          PACKAGE NAME    
     ------------------                 ------------------------                     ----------------

           IN:                                      IN:
           ---                                      ---
              STO-SS =           0.0000                STO-SS =           0.0000     STORAGE         
              STO-SY = 13997305053.4096                STO-SY =    24961755.2451     STORAGE         
                 WEL =           0.0000                   WEL =           0.0000     WEL_0           
                 DRN =           0.0000                   DRN =           0.0000     DRN_0           
                 RCH = 28039877753.5770                   RCH =    18089634.5222     RCH_0           

            TOTAL IN = 42037182806.9866              TOTAL IN =    43051389.7673

          OUT:                                     OUT:
          ----                                     ----
              STO-SS =           0.0000                STO-SS =           0.0000     STORAGE         
              STO-SY =  9020285154.2011                STO-SY =     4653663.0548     STORAGE         
                 WEL =  8080073288.4473                   WEL =    32602958.2997     WEL_0           
                 DRN = 24936814886.5396                   DRN =     5794768.5384     DRN_0           
                 RCH =           0.0000                   RCH =           0.0000     RCH_0           

           TOTAL OUT = 42037173329.1880             TOTAL OUT =    43051389.8929

            IN - OUT =        9477.7986              IN - OUT =          -0.1256

 PERCENT DISCREPANCY =           0.00     PERCENT DISCREPANCY =          -0.00




         TIME SUMMARY AT END OF TIME STEP    1 IN STRESS PERIOD  732
                          TIME STEP LENGTH =    1.00000    
                        STRESS PERIOD TIME =    1.00000    
                     TOTAL SIMULATION TIME =    732.000    

end timestep


start timestep kper="733" kstp="1" mode="normal"


 OUTPUT CONTROL FOR STRESS PERIOD 733 IS REPEATED USING SETTINGS FROM A PREVIOUS STRESS PERIOD.


 STRESS PERIOD 733 IS TRANSIENT


 REUSING WELS FROM LAST STRESS PERIOD

 REUSING DRNS FROM LAST STRESS PERIOD

 REUSING RCHS FROM LAST STRESS PERIOD


  VOLUME BUDGET FOR ENTIRE MODEL AT END OF TIME STEP    1, STRESS PERIOD 733
  ---------------------------------------------------------------------------------------------------

     CUMULATIVE VOLUME      L**3       RATES FOR THIS TIME STEP      L**3/T          PACKAGE NAME    
     ------------------                 ------------------------                     ----------------

           IN:                                      IN:
           ---                                      ---
              STO-SS =           0.0000                STO-SS =           0.0000     STORAGE         
              STO-SY = 14006414597.8509                STO-SY =     9109544.4413     STORAGE         
                 WEL =           0.0000                   WEL =           0.0000     WEL_0           
                 DRN =           0.0000                   DRN =           0.0000     DRN_0           
                 RCH = 28089384980.6775                   RCH =    49507227.1005     RCH_0           

            TOTAL IN = 42095799578.5284              TOTAL IN =    58616771.5418

          OUT:                                     OUT:
          ----                                     ----
              STO-SS =           0.0000                STO-SS =           0.0000     STORAGE         
              STO-SY =  9048910429.0555                STO-SY =    28625274.8544     STORAGE         
                 WEL =  8102466725.6377                   WEL =    22393437.1904     WEL_0           
                 DRN = 24944412929.3779                   DRN =     7598042.8383     DRN_0           
                 RCH =           0.0000                   RCH =           0.0000     RCH_0           

           TOTAL OUT = 42095790084.0711             TOTAL OUT =    58616754.8831

            IN - OUT =        9494.4573              IN - OUT =          16.6587

 PERCENT DISCREPANCY =           0.00     PERCENT DISCREPANCY =           0.00




         TIME SUMMARY AT END OF TIME STEP    1 IN STRESS PERIOD  733
                          TIME STEP LENGTH =    1.00000    
                        STRESS PERIOD TIME =    1.00000    
                     TOTAL SIMULATION TIME =    733.000    

end timestep


start timestep kper="734" kstp="1" mode="normal"


 OUTPUT CONTROL FOR STRESS PERIOD 734 IS REPEATED USING SETTINGS FROM A PREVIOUS STRESS PERIOD.


 STRESS PERIOD 734 IS TRANSIENT


 REUSING WELS FROM LAST STRESS PERIOD

 REUSING DRNS FROM LAST STRESS PERIOD

 REUSING RCHS FROM LAST STRESS PERIOD


  VOLUME BUDGET FOR ENTIRE MODEL AT END OF TIME STEP    1, STRESS PERIOD 734
  ---------------------------------------------------------------------------------------------------

     CUMULATIVE VOLUME      L**3       RATES FOR THIS TIME STEP      L**3/T          PACKAGE NAME    
     ------------------                 ------------------------                     ----------------

           IN:                                      IN:
           ---                                      ---
              STO-SS =           0.0000                STO-SS =           0.0000     STORAGE         
              STO-SY = 14007738860.9044                STO-SY =     1324263.0534     STORAGE         
                 WEL =           0.0000                   WEL =           0.0000     WEL_0           
                 DRN =           0.0000                   DRN =           0.0000     DRN_0           
                 RCH = 28189392301.4319                   RCH =   100007320.7544     RCH_0           

            TOTAL IN = 42197131162.3363              TOTAL IN =   101331583.8079

          OUT:                                     OUT:
          ----                                     ----
              STO-SS =           0.0000                STO-SS =           0.0000     STORAGE         
              STO-SY =  9128731329.9049                STO-SY =    79820900.8494     STORAGE         
                 WEL =  8112859617.4471                   WEL =    10392891.8094     WEL_0           
                 DRN = 24955530714.6925                   DRN =    11117785.3146     DRN_0           
                 RCH =           0.0000                   RCH =           0.0000     RCH_0           

           TOTAL OUT = 42197121662.0444             TOTAL OUT =   101331577.9733

            IN - OUT =        9500.2919              IN - OUT =           5.8346

 PERCENT DISCREPANCY =           0.00     PERCENT DISCREPANCY =           0.00




         TIME SUMMARY AT END OF TIME STEP    1 IN STRESS PERIOD  734
                          TIME STEP LENGTH =    1.00000    
                        STRESS PERIOD TIME =    1.00000    
                     TOTAL SIMULATION TIME =    734.000    

end timestep


start timestep kper="735" kstp="1" mode="normal"


 OUTPUT CONTROL FOR STRESS PERIOD 735 IS REPEATED USING SETTINGS FROM A PREVIOUS STRESS PERIOD.


 STRESS PERIOD 735 IS TRANSIENT


 REUSING WELS FROM LAST STRESS PERIOD

 REUSING DRNS FROM LAST STRESS PERIOD

 REUSING RCHS FROM LAST STRESS PERIOD


  VOLUME BUDGET FOR ENTIRE MODEL AT END OF TIME STEP    1, STRESS PERIOD 735
  ---------------------------------------------------------------------------------------------------

     CUMULATIVE VOLUME      L**3       RATES FOR THIS TIME STEP      L**3/T          PACKAGE NAME    
     ------------------                 ------------------------                     ----------------

           IN:                                      IN:
           ---                                      ---
              STO-SS =           0.0000                STO-SS =           0.0000     STORAGE         
              STO-SY = 14014304912.2199                STO-SY =     6566051.3155     STORAGE         
                 WEL =           0.0000                   WEL =           0.0000     WEL_0           
                 DRN =           0.0000                   DRN =           0.0000     DRN_0           
                 RCH = 28230460512.7414                   RCH =    41068211.3095     RCH_0           

            TOTAL IN = 42244765424.9613              TOTAL IN =    47634262.6250

          OUT:                                     OUT:
          ----                                     ----
              STO-SS =           0.0000                STO-SS =           0.0000     STORAGE         
              STO-SY =  9159213777.5778                STO-SY =    30482447.6728     STORAGE         
                 WEL =  8122053071.0733                   WEL =     9193453.6263     WEL_0           
                 DRN = 24963489076.1808                   DRN =     7958361.4884     DRN_0           
                 RCH =           0.0000                   RCH =           0.0000     RCH_0           

           TOTAL OUT = 42244755924.8319             TOTAL OUT =    47634262.7875

            IN - OUT =        9500.1294              IN - OUT =          -0.1625

 PERCENT DISCREPANCY =           0.00     PERCENT DISCREPANCY =          -0.00




         TIME SUMMARY AT END OF TIME STEP    1 IN STRESS PERIOD  735
                          TIME STEP LENGTH =    1.00000    
                        STRESS PERIOD TIME =    1.00000    
                     TOTAL SIMULATION TIME =    735.000    

end timestep


start timestep kper="736" kstp="1" mode="normal"


 OUTPUT CONTROL FOR STRESS PERIOD 736 IS REPEATED USING SETTINGS FROM A PREVIOUS STRESS PERIOD.


 STRESS PERIOD 736 IS TRANSIENT


 REUSING WELS FROM LAST STRESS PERIOD

 REUSING DRNS FROM LAST STRESS PERIOD

 REUSING RCHS FROM LAST STRESS PERIOD


  VOLUME BUDGET FOR ENTIRE MODEL AT END OF TIME STEP    1, STRESS PERIOD 736
  ---------------------------------------------------------------------------------------------------

     CUMULATIVE VOLUME      L**3       RATES FOR THIS TIME STEP      L**3/T          PACKAGE NAME    
     ------------------                 ------------------------                     ----------------

           IN:                                      IN:
           ---                                      ---
              STO-SS =           0.0000                STO-SS =           0.0000     STORAGE         
              STO-SY = 14015766708.1891                STO-SY =     1461795.9692     STORAGE         
                 WEL =           0.0000                   WEL =           0.0000     WEL_0           
                 DRN =           0.0000                   DRN =           0.0000     DRN_0           
                 RCH = 28458633670.9601                   RCH =   228173158.2187     RCH_0           

            TOTAL IN = 42474400379.1492              TOTAL IN =   229634954.1879

          OUT:                                     OUT:
          ----                                     ----
              STO-SS =           0.0000                STO-SS =           0.0000     STORAGE         
              STO-SY =  9356714221.9532                STO-SY =   197500444.3754     STORAGE         
                 WEL =  8135338598.6939                   WEL =    13285527.6205     WEL_0           
                 DRN = 24982338058.3683                   DRN =    18848982.1874     DRN_0           
                 RCH =           0.0000                   RCH =           0.0000     RCH_0           

           TOTAL OUT = 42474390879.0153             TOTAL OUT =   229634954.1834

            IN - OUT =        9500.1339              IN - OUT =       4.5162E-03

 PERCENT DISCREPANCY =           0.00     PERCENT DISCREPANCY =           0.00




         TIME SUMMARY AT END OF TIME STEP    1 IN STRESS PERIOD  736
                          TIME STEP LENGTH =    1.00000    
                        STRESS PERIOD TIME =    1.00000    
                     TOTAL SIMULATION TIME =    736.000    

end timestep


start timestep kper="737" kstp="1" mode="normal"


 OUTPUT CONTROL FOR STRESS PERIOD 737 IS REPEATED USING SETTINGS FROM A PREVIOUS STRESS PERIOD.


 STRESS PERIOD 737 IS TRANSIENT


 REUSING WELS FROM LAST STRESS PERIOD

 REUSING DRNS FROM LAST STRESS PERIOD

 REUSING RCHS FROM LAST STRESS PERIOD


  VOLUME BUDGET FOR ENTIRE MODEL AT END OF TIME STEP    1, STRESS PERIOD 737
  ---------------------------------------------------------------------------------------------------

     CUMULATIVE VOLUME      L**3       RATES FOR THIS TIME STEP      L**3/T          PACKAGE NAME    
     ------------------                 ------------------------                     ----------------

           IN:                                      IN:
           ---                                      ---
              STO-SS =           0.0000                STO-SS =           0.0000     STORAGE         
              STO-SY = 14019601518.2355                STO-SY =     3834810.0464     STORAGE         
                 WEL =           0.0000                   WEL =           0.0000     WEL_0           
                 DRN =           0.0000                   DRN =           0.0000     DRN_0           
                 RCH = 28554298618.7470                   RCH =    95664947.7869     RCH_0           

            TOTAL IN = 42573900136.9825              TOTAL IN =    99499757.8333

          OUT:                                     OUT:
          ----                                     ----
              STO-SS =           0.0000                STO-SS =           0.0000     STORAGE         
              STO-SY =  9436475443.0620                STO-SY =    79761221.1088     STORAGE         
                 WEL =  8144180259.3589                   WEL =     8841660.6650     WEL_0           
                 DRN = 24993234976.3364                   DRN =    10896917.9681     DRN_0           
                 RCH =           0.0000                   RCH =           0.0000     RCH_0           

           TOTAL OUT = 42573890678.7572             TOTAL OUT =    99499799.7419

            IN - OUT =        9458.2253              IN - OUT =         -41.9086

 PERCENT DISCREPANCY =           0.00     PERCENT DISCREPANCY =          -0.00




         TIME SUMMARY AT END OF TIME STEP    1 IN STRESS PERIOD  737
                          TIME STEP LENGTH =    1.00000    
                        STRESS PERIOD TIME =    1.00000    
                     TOTAL SIMULATION TIME =    737.000    

end timestep


start timestep kper="738" kstp="1" mode="normal"


 OUTPUT CONTROL FOR STRESS PERIOD 738 IS REPEATED USING SETTINGS FROM A PREVIOUS STRESS PERIOD.


 STRESS PERIOD 738 IS TRANSIENT


 REUSING WELS FROM LAST STRESS PERIOD

 REUSING DRNS FROM LAST STRESS PERIOD

 REUSING RCHS FROM LAST STRESS PERIOD


  VOLUME BUDGET FOR ENTIRE MODEL AT END OF TIME STEP    1, STRESS PERIOD 738
  ---------------------------------------------------------------------------------------------------

     CUMULATIVE VOLUME      L**3       RATES FOR THIS TIME STEP      L**3/T          PACKAGE NAME    
     ------------------                 ------------------------                     ----------------

           IN:                                      IN:
           ---                                      ---
              STO-SS =           0.0000                STO-SS =           0.0000     STORAGE         
              STO-SY = 14021605797.7584                STO-SY =     2004279.5229     STORAGE         
                 WEL =           0.0000                   WEL =           0.0000     WEL_0           
                 DRN =           0.0000                   DRN =           0.0000     DRN_0           
                 RCH = 28624947881.5106                   RCH =    70649262.7636     RCH_0           

            TOTAL IN = 42646553679.2690              TOTAL IN =    72653542.2865

          OUT:                                     OUT:
          ----                                     ----
              STO-SS =           0.0000                STO-SS =           0.0000     STORAGE         
              STO-SY =  9491795137.1116                STO-SY =    55319694.0496     STORAGE         
                 WEL =  8149491334.5166                   WEL =     5311075.1578     WEL_0           
                 DRN = 25005257749.3643                   DRN =    12022773.0279     DRN_0           
                 RCH =           0.0000                   RCH =           0.0000     RCH_0           

           TOTAL OUT = 42646544220.9925             TOTAL OUT =    72653542.2353

            IN - OUT =        9458.2765              IN - OUT =       5.1186E-02

 PERCENT DISCREPANCY =           0.00     PERCENT DISCREPANCY =           0.00




         TIME SUMMARY AT END OF TIME STEP    1 IN STRESS PERIOD  738
                          TIME STEP LENGTH =    1.00000    
                        STRESS PERIOD TIME =    1.00000    
                     TOTAL SIMULATION TIME =    738.000    

end timestep


start timestep kper="739" kstp="1" mode="normal"


 OUTPUT CONTROL FOR STRESS PERIOD 739 IS REPEATED USING SETTINGS FROM A PREVIOUS STRESS PERIOD.


 STRESS PERIOD 739 IS TRANSIENT


 REUSING WELS FROM LAST STRESS PERIOD

 REUSING DRNS FROM LAST STRESS PERIOD

 REUSING RCHS FROM LAST STRESS PERIOD


  VOLUME BUDGET FOR ENTIRE MODEL AT END OF TIME STEP    1, STRESS PERIOD 739
  ---------------------------------------------------------------------------------------------------

     CUMULATIVE VOLUME      L**3       RATES FOR THIS TIME STEP      L**3/T          PACKAGE NAME    
     ------------------                 ------------------------                     ----------------

           IN:                                      IN:
           ---                                      ---
              STO-SS =           0.0000                STO-SS =           0.0000     STORAGE         
              STO-SY = 14025195776.1666                STO-SY =     3589978.4082     STORAGE         
                 WEL =           0.0000                   WEL =           0.0000     WEL_0           
                 DRN =           0.0000                   DRN =           0.0000     DRN_0           
                 RCH = 28670485742.9873                   RCH =    45537861.4767     RCH_0           

            TOTAL IN = 42695681519.1539              TOTAL IN =    49127839.8849

          OUT:                                     OUT:
          ----                                     ----
              STO-SS =           0.0000                STO-SS =           0.0000     STORAGE         
              STO-SY =  9525056020.7123                STO-SY =    33260883.6007     STORAGE         
                 WEL =  8155475808.1138                   WEL =     5984473.5972     WEL_0           
                 DRN = 25015140232.4499                   DRN =     9882483.0857     DRN_0           
                 RCH =           0.0000                   RCH =           0.0000     RCH_0           

           TOTAL OUT = 42695672061.2761             TOTAL OUT =    49127840.2836

            IN - OUT =        9457.8778              IN - OUT =          -0.3987

 PERCENT DISCREPANCY =           0.00     PERCENT DISCREPANCY =          -0.00




         TIME SUMMARY AT END OF TIME STEP    1 IN STRESS PERIOD  739
                          TIME STEP LENGTH =    1.00000    
                        STRESS PERIOD TIME =    1.00000    
                     TOTAL SIMULATION TIME =    739.000    

end timestep


start timestep kper="740" kstp="1" mode="normal"


 OUTPUT CONTROL FOR STRESS PERIOD 740 IS REPEATED USING SETTINGS FROM A PREVIOUS STRESS PERIOD.


 STRESS PERIOD 740 IS TRANSIENT


 REUSING WELS FROM LAST STRESS PERIOD

 REUSING DRNS FROM LAST STRESS PERIOD

 REUSING RCHS FROM LAST STRESS PERIOD


  VOLUME BUDGET FOR ENTIRE MODEL AT END OF TIME STEP    1, STRESS PERIOD 740
  ---------------------------------------------------------------------------------------------------

     CUMULATIVE VOLUME      L**3       RATES FOR THIS TIME STEP      L**3/T          PACKAGE NAME    
     ------------------                 ------------------------                     ----------------

           IN:                                      IN:
           ---                                      ---
              STO-SS =           0.0000                STO-SS =           0.0000     STORAGE         
              STO-SY = 14030079764.4163                STO-SY =     4883988.2497     STORAGE         
                 WEL =           0.0000                   WEL =           0.0000     WEL_0           
                 DRN =           0.0000                   DRN =           0.0000     DRN_0           
                 RCH = 28705601584.5719                   RCH =    35115841.5846     RCH_0           

            TOTAL IN = 42735681348.9882              TOTAL IN =    39999829.8343

          OUT:                                     OUT:
          ----                                     ----
              STO-SS =           0.0000                STO-SS =           0.0000     STORAGE         
              STO-SY =  9551384443.9135                STO-SY =    26328423.2012     STORAGE         
                 WEL =  8158200387.0680                   WEL =     2724578.9542     WEL_0           
                 DRN = 25026087051.9250                   DRN =    10946819.4751     DRN_0           
                 RCH =           0.0000                   RCH =           0.0000     RCH_0           

           TOTAL OUT = 42735671882.9065             TOTAL OUT =    39999821.6304

            IN - OUT =        9466.0817              IN - OUT =           8.2039

 PERCENT DISCREPANCY =           0.00     PERCENT DISCREPANCY =           0.00




         TIME SUMMARY AT END OF TIME STEP    1 IN STRESS PERIOD  740
                          TIME STEP LENGTH =    1.00000    
                        STRESS PERIOD TIME =    1.00000    
                     TOTAL SIMULATION TIME =    740.000    

end timestep


start timestep kper="741" kstp="1" mode="normal"


 OUTPUT CONTROL FOR STRESS PERIOD 741 IS REPEATED USING SETTINGS FROM A PREVIOUS STRESS PERIOD.


 STRESS PERIOD 741 IS TRANSIENT


 REUSING WELS FROM LAST STRESS PERIOD

 REUSING DRNS FROM LAST STRESS PERIOD

 REUSING RCHS FROM LAST STRESS PERIOD


  VOLUME BUDGET FOR ENTIRE MODEL AT END OF TIME STEP    1, STRESS PERIOD 741
  ---------------------------------------------------------------------------------------------------

     CUMULATIVE VOLUME      L**3       RATES FOR THIS TIME STEP      L**3/T          PACKAGE NAME    
     ------------------                 ------------------------                     ----------------

           IN:                                      IN:
           ---                                      ---
              STO-SS =           0.0000                STO-SS =           0.0000     STORAGE         
              STO-SY = 14031787923.4302                STO-SY =     1708159.0138     STORAGE         
                 WEL =           0.0000                   WEL =           0.0000     WEL_0           
                 DRN =           0.0000                   DRN =           0.0000     DRN_0           
                 RCH = 28787003695.8154                   RCH =    81402111.2435     RCH_0           

            TOTAL IN = 42818791619.2456              TOTAL IN =    83110270.2574

          OUT:                                     OUT:
          ----                                     ----
              STO-SS =           0.0000                STO-SS =           0.0000     STORAGE         
              STO-SY =  9616868760.6511                STO-SY =    65484316.7377     STORAGE         
                 WEL =  8161367510.3314                   WEL =     3167123.2634     WEL_0           
                 DRN = 25040545875.8291                   DRN =    14458823.9041     DRN_0           
                 RCH =           0.0000                   RCH =           0.0000     RCH_0           

           TOTAL OUT = 42818782146.8116             TOTAL OUT =    83110263.9051

            IN - OUT =        9472.4340              IN - OUT =           6.3523

 PERCENT DISCREPANCY =           0.00     PERCENT DISCREPANCY =           0.00




         TIME SUMMARY AT END OF TIME STEP    1 IN STRESS PERIOD  741
                          TIME STEP LENGTH =    1.00000    
                        STRESS PERIOD TIME =    1.00000    
                     TOTAL SIMULATION TIME =    741.000    

end timestep


start timestep kper="742" kstp="1" mode="normal"


 OUTPUT CONTROL FOR STRESS PERIOD 742 IS REPEATED USING SETTINGS FROM A PREVIOUS STRESS PERIOD.


 STRESS PERIOD 742 IS TRANSIENT


 REUSING WELS FROM LAST STRESS PERIOD

 REUSING DRNS FROM LAST STRESS PERIOD

 REUSING RCHS FROM LAST STRESS PERIOD


  VOLUME BUDGET FOR ENTIRE MODEL AT END OF TIME STEP    1, STRESS PERIOD 742
  ---------------------------------------------------------------------------------------------------

     CUMULATIVE VOLUME      L**3       RATES FOR THIS TIME STEP      L**3/T          PACKAGE NAME    
     ------------------                 ------------------------                     ----------------

           IN:                                      IN:
           ---                                      ---
              STO-SS =           0.0000                STO-SS =           0.0000     STORAGE         
              STO-SY = 14038642684.3595                STO-SY =     6854760.9294     STORAGE         
                 WEL =           0.0000                   WEL =           0.0000     WEL_0           
                 DRN =           0.0000                   DRN =           0.0000     DRN_0           
                 RCH = 28809897475.9850                   RCH =    22893780.1696     RCH_0           

            TOTAL IN = 42848540160.3445              TOTAL IN =    29748541.0990

          OUT:                                     OUT:
          ----                                     ----
              STO-SS =           0.0000                STO-SS =           0.0000     STORAGE         
              STO-SY =  9630010834.8229                STO-SY =    13142074.1718     STORAGE         
                 WEL =  8167488187.5487                   WEL =     6120677.2173     WEL_0           
                 DRN = 25051031665.4031                   DRN =    10485789.5740     DRN_0           
                 RCH =           0.0000                   RCH =           0.0000     RCH_0           

           TOTAL OUT = 42848530687.7747             TOTAL OUT =    29748540.9631

            IN - OUT =        9472.5698              IN - OUT =           0.1359

 PERCENT DISCREPANCY =           0.00     PERCENT DISCREPANCY =           0.00




         TIME SUMMARY AT END OF TIME STEP    1 IN STRESS PERIOD  742
                          TIME STEP LENGTH =    1.00000    
                        STRESS PERIOD TIME =    1.00000    
                     TOTAL SIMULATION TIME =    742.000    

end timestep


start timestep kper="743" kstp="1" mode="normal"


 OUTPUT CONTROL FOR STRESS PERIOD 743 IS REPEATED USING SETTINGS FROM A PREVIOUS STRESS PERIOD.


 STRESS PERIOD 743 IS TRANSIENT


 REUSING WELS FROM LAST STRESS PERIOD

 REUSING DRNS FROM LAST STRESS PERIOD

 REUSING RCHS FROM LAST STRESS PERIOD


  VOLUME BUDGET FOR ENTIRE MODEL AT END OF TIME STEP    1, STRESS PERIOD 743
  ---------------------------------------------------------------------------------------------------

     CUMULATIVE VOLUME      L**3       RATES FOR THIS TIME STEP      L**3/T          PACKAGE NAME    
     ------------------                 ------------------------                     ----------------

           IN:                                      IN:
           ---                                      ---
              STO-SS =           0.0000                STO-SS =           0.0000     STORAGE         
              STO-SY = 14047978788.1200                STO-SY =     9336103.7605     STORAGE         
                 WEL =           0.0000                   WEL =           0.0000     WEL_0           
                 DRN =           0.0000                   DRN =           0.0000     DRN_0           
                 RCH = 28825238891.7834                   RCH =    15341415.7984     RCH_0           

            TOTAL IN = 42873217679.9034              TOTAL IN =    24677519.5589

          OUT:                                     OUT:
          ----                                     ----
              STO-SS =           0.0000                STO-SS =           0.0000     STORAGE         
              STO-SY =  9637230126.9022                STO-SY =     7219292.0793     STORAGE         
                 WEL =  8173745901.6754                   WEL =     6257714.1267     WEL_0           
                 DRN = 25062232160.3242                   DRN =    11200494.9212     DRN_0           
                 RCH =           0.0000                   RCH =           0.0000     RCH_0           

           TOTAL OUT = 42873208188.9018             TOTAL OUT =    24677501.1271

            IN - OUT =        9491.0015              IN - OUT =          18.4317

 PERCENT DISCREPANCY =           0.00     PERCENT DISCREPANCY =           0.00




         TIME SUMMARY AT END OF TIME STEP    1 IN STRESS PERIOD  743
                          TIME STEP LENGTH =    1.00000    
                        STRESS PERIOD TIME =    1.00000    
                     TOTAL SIMULATION TIME =    743.000    

end timestep


start timestep kper="744" kstp="1" mode="normal"


 OUTPUT CONTROL FOR STRESS PERIOD 744 IS REPEATED USING SETTINGS FROM A PREVIOUS STRESS PERIOD.


 STRESS PERIOD 744 IS TRANSIENT


 REUSING WELS FROM LAST STRESS PERIOD

 REUSING DRNS FROM LAST STRESS PERIOD

 REUSING RCHS FROM LAST STRESS PERIOD


  VOLUME BUDGET FOR ENTIRE MODEL AT END OF TIME STEP    1, STRESS PERIOD 744
  ---------------------------------------------------------------------------------------------------

     CUMULATIVE VOLUME      L**3       RATES FOR THIS TIME STEP      L**3/T          PACKAGE NAME    
     ------------------                 ------------------------                     ----------------

           IN:                                      IN:
           ---                                      ---
              STO-SS =           0.0000                STO-SS =           0.0000     STORAGE         
              STO-SY = 14051201443.2549                STO-SY =     3222655.1349     STORAGE         
                 WEL =           0.0000                   WEL =           0.0000     WEL_0           
                 DRN =           0.0000                   DRN =           0.0000     DRN_0           
                 RCH = 28882017393.3657                   RCH =    56778501.5823     RCH_0           

            TOTAL IN = 42933218836.6205              TOTAL IN =    60001156.7172

          OUT:                                     OUT:
          ----                                     ----
              STO-SS =           0.0000                STO-SS =           0.0000     STORAGE         
              STO-SY =  9683157189.2162                STO-SY =    45927062.3140     STORAGE         
                 WEL =  8175249752.5678                   WEL =     1503850.8924     WEL_0           
                 DRN = 25074802404.8792                   DRN =    12570244.5550     DRN_0           
                 RCH =           0.0000                   RCH =           0.0000     RCH_0           

           TOTAL OUT = 42933209346.6633             TOTAL OUT =    60001157.7614

            IN - OUT =        9489.9573              IN - OUT =          -1.0443

 PERCENT DISCREPANCY =           0.00     PERCENT DISCREPANCY =          -0.00




         TIME SUMMARY AT END OF TIME STEP    1 IN STRESS PERIOD  744
                          TIME STEP LENGTH =    1.00000    
                        STRESS PERIOD TIME =    1.00000    
                     TOTAL SIMULATION TIME =    744.000    

end timestep


start timestep kper="745" kstp="1" mode="normal"


 OUTPUT CONTROL FOR STRESS PERIOD 745 IS REPEATED USING SETTINGS FROM A PREVIOUS STRESS PERIOD.


 STRESS PERIOD 745 IS TRANSIENT


 REUSING WELS FROM LAST STRESS PERIOD

 REUSING DRNS FROM LAST STRESS PERIOD

 REUSING RCHS FROM LAST STRESS PERIOD


  VOLUME BUDGET FOR ENTIRE MODEL AT END OF TIME STEP    1, STRESS PERIOD 745
  ---------------------------------------------------------------------------------------------------

     CUMULATIVE VOLUME      L**3       RATES FOR THIS TIME STEP      L**3/T          PACKAGE NAME    
     ------------------                 ------------------------                     ----------------

           IN:                                      IN:
           ---                                      ---
              STO-SS =           0.0000                STO-SS =           0.0000     STORAGE         
              STO-SY = 14052049609.6945                STO-SY =      848166.4396     STORAGE         
                 WEL =           0.0000                   WEL =           0.0000     WEL_0           
                 DRN =           0.0000                   DRN =           0.0000     DRN_0           
                 RCH = 28969921173.7891                   RCH =    87903780.4234     RCH_0           

            TOTAL IN = 43021970783.4835              TOTAL IN =    88751946.8630

          OUT:                                     OUT:
          ----                                     ----
              STO-SS =           0.0000                STO-SS =           0.0000     STORAGE         
              STO-SY =  9756585060.9628                STO-SY =    73427871.7466     STORAGE         
                 WEL =  8176524911.4406                   WEL =     1275158.8728     WEL_0           
                 DRN = 25088851320.0404                   DRN =    14048915.1612     DRN_0           
                 RCH =           0.0000                   RCH =           0.0000     RCH_0           

           TOTAL OUT = 43021961292.4438             TOTAL OUT =    88751945.7806

            IN - OUT =        9491.0397              IN - OUT =           1.0824

 PERCENT DISCREPANCY =           0.00     PERCENT DISCREPANCY =           0.00




         TIME SUMMARY AT END OF TIME STEP    1 IN STRESS PERIOD  745
                          TIME STEP LENGTH =    1.00000    
                        STRESS PERIOD TIME =    1.00000    
                     TOTAL SIMULATION TIME =    745.000    

end timestep


start timestep kper="746" kstp="1" mode="normal"


 OUTPUT CONTROL FOR STRESS PERIOD 746 IS REPEATED USING SETTINGS FROM A PREVIOUS STRESS PERIOD.


 STRESS PERIOD 746 IS TRANSIENT


 REUSING WELS FROM LAST STRESS PERIOD

 REUSING DRNS FROM LAST STRESS PERIOD

 REUSING RCHS FROM LAST STRESS PERIOD


  VOLUME BUDGET FOR ENTIRE MODEL AT END OF TIME STEP    1, STRESS PERIOD 746
  ---------------------------------------------------------------------------------------------------

     CUMULATIVE VOLUME      L**3       RATES FOR THIS TIME STEP      L**3/T          PACKAGE NAME    
     ------------------                 ------------------------                     ----------------

           IN:                                      IN:
           ---                                      ---
              STO-SS =           0.0000                STO-SS =           0.0000     STORAGE         
              STO-SY = 14052945040.3179                STO-SY =      895430.6235     STORAGE         
                 WEL =           0.0000                   WEL =           0.0000     WEL_0           
                 DRN =           0.0000                   DRN =           0.0000     DRN_0           
                 RCH = 29269691530.3008                   RCH =   299770356.5117     RCH_0           

            TOTAL IN = 43322636570.6187              TOTAL IN =   300665787.1352

          OUT:                                     OUT:
          ----                                     ----
              STO-SS =           0.0000                STO-SS =           0.0000     STORAGE         
              STO-SY = 10019536575.1110                STO-SY =   262951514.1482     STORAGE         
                 WEL =  8178048596.9269                   WEL =     1523685.4863     WEL_0           
                 DRN = 25125041907.4560                   DRN =    36190587.4156     DRN_0           
                 RCH =           0.0000                   RCH =           0.0000     RCH_0           

           TOTAL OUT = 43322627079.4940             TOTAL OUT =   300665787.0501

            IN - OUT =        9491.1247              IN - OUT =       8.5023E-02

 PERCENT DISCREPANCY =           0.00     PERCENT DISCREPANCY =           0.00




         TIME SUMMARY AT END OF TIME STEP    1 IN STRESS PERIOD  746
                          TIME STEP LENGTH =    1.00000    
                        STRESS PERIOD TIME =    1.00000    
                     TOTAL SIMULATION TIME =    746.000    

end timestep


start timestep kper="747" kstp="1" mode="normal"


 OUTPUT CONTROL FOR STRESS PERIOD 747 IS REPEATED USING SETTINGS FROM A PREVIOUS STRESS PERIOD.


 STRESS PERIOD 747 IS TRANSIENT


 REUSING WELS FROM LAST STRESS PERIOD

 REUSING DRNS FROM LAST STRESS PERIOD

 REUSING RCHS FROM LAST STRESS PERIOD


  VOLUME BUDGET FOR ENTIRE MODEL AT END OF TIME STEP    1, STRESS PERIOD 747
  ---------------------------------------------------------------------------------------------------

     CUMULATIVE VOLUME      L**3       RATES FOR THIS TIME STEP      L**3/T          PACKAGE NAME    
     ------------------                 ------------------------                     ----------------

           IN:                                      IN:
           ---                                      ---
              STO-SS =           0.0000                STO-SS =           0.0000     STORAGE         
              STO-SY = 14054902200.5836                STO-SY =     1957160.2657     STORAGE         
                 WEL =           0.0000                   WEL =           0.0000     WEL_0           
                 DRN =           0.0000                   DRN =           0.0000     DRN_0           
                 RCH = 29668991759.3273                   RCH =   399300229.0265     RCH_0           

            TOTAL IN = 43723893959.9109              TOTAL IN =   401257389.2922

          OUT:                                     OUT:
          ----                                     ----
              STO-SS =           0.0000                STO-SS =           0.0000     STORAGE         
              STO-SY = 10363392441.2529                STO-SY =   343855866.1419     STORAGE         
                 WEL =  8180921638.0322                   WEL =     2873041.1053     WEL_0           
                 DRN = 25179570389.4659                   DRN =    54528482.0099     DRN_0           
                 RCH =           0.0000                   RCH =           0.0000     RCH_0           

           TOTAL OUT = 43723884468.7511             TOTAL OUT =   401257389.2571

            IN - OUT =        9491.1599              IN - OUT =       3.5192E-02

 PERCENT DISCREPANCY =           0.00     PERCENT DISCREPANCY =           0.00




         TIME SUMMARY AT END OF TIME STEP    1 IN STRESS PERIOD  747
                          TIME STEP LENGTH =    1.00000    
                        STRESS PERIOD TIME =    1.00000    
                     TOTAL SIMULATION TIME =    747.000    

end timestep


start timestep kper="748" kstp="1" mode="normal"


 OUTPUT CONTROL FOR STRESS PERIOD 748 IS REPEATED USING SETTINGS FROM A PREVIOUS STRESS PERIOD.


 STRESS PERIOD 748 IS TRANSIENT


 REUSING WELS FROM LAST STRESS PERIOD

 REUSING DRNS FROM LAST STRESS PERIOD

 REUSING RCHS FROM LAST STRESS PERIOD


  VOLUME BUDGET FOR ENTIRE MODEL AT END OF TIME STEP    1, STRESS PERIOD 748
  ---------------------------------------------------------------------------------------------------

     CUMULATIVE VOLUME      L**3       RATES FOR THIS TIME STEP      L**3/T          PACKAGE NAME    
     ------------------                 ------------------------                     ----------------

           IN:                                      IN:
           ---                                      ---
              STO-SS =           0.0000                STO-SS =           0.0000     STORAGE         
              STO-SY = 14058890931.1884                STO-SY =     3988730.6048     STORAGE         
                 WEL =           0.0000                   WEL =           0.0000     WEL_0           
                 DRN =           0.0000                   DRN =           0.0000     DRN_0           
                 RCH = 29764260775.2504                   RCH =    95269015.9231     RCH_0           

            TOTAL IN = 43823151706.4388              TOTAL IN =    99257746.5279

          OUT:                                     OUT:
          ----                                     ----
              STO-SS =           0.0000                STO-SS =           0.0000     STORAGE         
              STO-SY = 10435450115.4931                STO-SY =    72057674.2402     STORAGE         
                 WEL =  8184053749.1049                   WEL =     3132111.0726     WEL_0           
                 DRN = 25203638350.2935                   DRN =    24067960.8276     DRN_0           
                 RCH =           0.0000                   RCH =           0.0000     RCH_0           

           TOTAL OUT = 43823142214.8914             TOTAL OUT =    99257746.1404

            IN - OUT =        9491.5474              IN - OUT =           0.3875

 PERCENT DISCREPANCY =           0.00     PERCENT DISCREPANCY =           0.00




         TIME SUMMARY AT END OF TIME STEP    1 IN STRESS PERIOD  748
                          TIME STEP LENGTH =    1.00000    
                        STRESS PERIOD TIME =    1.00000    
                     TOTAL SIMULATION TIME =    748.000    

end timestep


start timestep kper="749" kstp="1" mode="normal"


 OUTPUT CONTROL FOR STRESS PERIOD 749 IS REPEATED USING SETTINGS FROM A PREVIOUS STRESS PERIOD.


 STRESS PERIOD 749 IS TRANSIENT


 REUSING WELS FROM LAST STRESS PERIOD

 REUSING DRNS FROM LAST STRESS PERIOD

 REUSING RCHS FROM LAST STRESS PERIOD


  VOLUME BUDGET FOR ENTIRE MODEL AT END OF TIME STEP    1, STRESS PERIOD 749
  ---------------------------------------------------------------------------------------------------

     CUMULATIVE VOLUME      L**3       RATES FOR THIS TIME STEP      L**3/T          PACKAGE NAME    
     ------------------                 ------------------------                     ----------------

           IN:                                      IN:
           ---                                      ---
              STO-SS =           0.0000                STO-SS =           0.0000     STORAGE         
              STO-SY = 14060272767.9920                STO-SY =     1381836.8036     STORAGE         
                 WEL =           0.0000                   WEL =           0.0000     WEL_0           
                 DRN =           0.0000                   DRN =           0.0000     DRN_0           
                 RCH = 29925111111.3315                   RCH =   160850336.0811     RCH_0           

            TOTAL IN = 43985383879.3235              TOTAL IN =   162232172.8846

          OUT:                                     OUT:
          ----                                     ----
              STO-SS =           0.0000                STO-SS =           0.0000     STORAGE         
              STO-SY = 10559560418.3241                STO-SY =   124110302.8310     STORAGE         
                 WEL =  8186681179.3184                   WEL =     2627430.2136     WEL_0           
                 DRN = 25239132788.3444                   DRN =    35494438.0509     DRN_0           
                 RCH =           0.0000                   RCH =           0.0000     RCH_0           

           TOTAL OUT = 43985374385.9870             TOTAL OUT =   162232171.0956

            IN - OUT =        9493.3365              IN - OUT =           1.7891

 PERCENT DISCREPANCY =           0.00     PERCENT DISCREPANCY =           0.00




         TIME SUMMARY AT END OF TIME STEP    1 IN STRESS PERIOD  749
                          TIME STEP LENGTH =    1.00000    
                        STRESS PERIOD TIME =    1.00000    
                     TOTAL SIMULATION TIME =    749.000    

end timestep


start timestep kper="750" kstp="1" mode="normal"


 OUTPUT CONTROL FOR STRESS PERIOD 750 IS REPEATED USING SETTINGS FROM A PREVIOUS STRESS PERIOD.


 STRESS PERIOD 750 IS TRANSIENT


 REUSING WELS FROM LAST STRESS PERIOD

 REUSING DRNS FROM LAST STRESS PERIOD

 REUSING RCHS FROM LAST STRESS PERIOD


  VOLUME BUDGET FOR ENTIRE MODEL AT END OF TIME STEP    1, STRESS PERIOD 750
  ---------------------------------------------------------------------------------------------------

     CUMULATIVE VOLUME      L**3       RATES FOR THIS TIME STEP      L**3/T          PACKAGE NAME    
     ------------------                 ------------------------                     ----------------

           IN:                                      IN:
           ---                                      ---
              STO-SS =           0.0000                STO-SS =           0.0000     STORAGE         
              STO-SY = 14069946134.6841                STO-SY =     9673366.6921     STORAGE         
                 WEL =           0.0000                   WEL =           0.0000     WEL_0           
                 DRN =           0.0000                   DRN =           0.0000     DRN_0           
                 RCH = 29970509537.1822                   RCH =    45398425.8507     RCH_0           

            TOTAL IN = 44040455671.8663              TOTAL IN =    55071792.5428

          OUT:                                     OUT:
          ----                                     ----
              STO-SS =           0.0000                STO-SS =           0.0000     STORAGE         
              STO-SY = 10590981947.5734                STO-SY =    31421529.2493     STORAGE         
                 WEL =  8189902716.2448                   WEL =     3221536.9263     WEL_0           
                 DRN = 25259561526.8695                   DRN =    20428738.5251     DRN_0           
                 RCH =           0.0000                   RCH =           0.0000     RCH_0           

           TOTAL OUT = 44040446190.6877             TOTAL OUT =    55071804.7007

            IN - OUT =        9481.1786              IN - OUT =         -12.1579

 PERCENT DISCREPANCY =           0.00     PERCENT DISCREPANCY =          -0.00




         TIME SUMMARY AT END OF TIME STEP    1 IN STRESS PERIOD  750
                          TIME STEP LENGTH =    1.00000    
                        STRESS PERIOD TIME =    1.00000    
                     TOTAL SIMULATION TIME =    750.000    

end timestep


start timestep kper="751" kstp="1" mode="normal"


 OUTPUT CONTROL FOR STRESS PERIOD 751 IS REPEATED USING SETTINGS FROM A PREVIOUS STRESS PERIOD.


 STRESS PERIOD 751 IS TRANSIENT


 REUSING WELS FROM LAST STRESS PERIOD

 REUSING DRNS FROM LAST STRESS PERIOD

 REUSING RCHS FROM LAST STRESS PERIOD


  VOLUME BUDGET FOR ENTIRE MODEL AT END OF TIME STEP    1, STRESS PERIOD 751
  ---------------------------------------------------------------------------------------------------

     CUMULATIVE VOLUME      L**3       RATES FOR THIS TIME STEP      L**3/T          PACKAGE NAME    
     ------------------                 ------------------------                     ----------------

           IN:                                      IN:
           ---                                      ---
              STO-SS =           0.0000                STO-SS =           0.0000     STORAGE         
              STO-SY = 14080469012.3903                STO-SY =    10522877.7062     STORAGE         
                 WEL =           0.0000                   WEL =           0.0000     WEL_0           
                 DRN =           0.0000                   DRN =           0.0000     DRN_0           
                 RCH = 30005252710.4238                   RCH =    34743173.2417     RCH_0           

            TOTAL IN = 44085721722.8141              TOTAL IN =    45266050.9479

          OUT:                                     OUT:
          ----                                     ----
              STO-SS =           0.0000                STO-SS =           0.0000     STORAGE         
              STO-SY = 10611873062.3223                STO-SY =    20891114.7489     STORAGE         
                 WEL =  8193287030.8402                   WEL =     3384314.5954     WEL_0           
                 DRN = 25280552149.1262                   DRN =    20990622.2567     DRN_0           
                 RCH =           0.0000                   RCH =           0.0000     RCH_0           

           TOTAL OUT = 44085712242.2887             TOTAL OUT =    45266051.6010

            IN - OUT =        9480.5255              IN - OUT =          -0.6531

 PERCENT DISCREPANCY =           0.00     PERCENT DISCREPANCY =          -0.00




         TIME SUMMARY AT END OF TIME STEP    1 IN STRESS PERIOD  751
                          TIME STEP LENGTH =    1.00000    
                        STRESS PERIOD TIME =    1.00000    
                     TOTAL SIMULATION TIME =    751.000    

end timestep


start timestep kper="752" kstp="1" mode="normal"


 OUTPUT CONTROL FOR STRESS PERIOD 752 IS REPEATED USING SETTINGS FROM A PREVIOUS STRESS PERIOD.


 STRESS PERIOD 752 IS TRANSIENT


 REUSING WELS FROM LAST STRESS PERIOD

 REUSING DRNS FROM LAST STRESS PERIOD

 REUSING RCHS FROM LAST STRESS PERIOD


  VOLUME BUDGET FOR ENTIRE MODEL AT END OF TIME STEP    1, STRESS PERIOD 752
  ---------------------------------------------------------------------------------------------------

     CUMULATIVE VOLUME      L**3       RATES FOR THIS TIME STEP      L**3/T          PACKAGE NAME    
     ------------------                 ------------------------                     ----------------

           IN:                                      IN:
           ---                                      ---
              STO-SS =           0.0000                STO-SS =           0.0000     STORAGE         
              STO-SY = 14089323595.4393                STO-SY =     8854583.0489     STORAGE         
                 WEL =           0.0000                   WEL =           0.0000     WEL_0           
                 DRN =           0.0000                   DRN =           0.0000     DRN_0           
                 RCH = 30047525745.3678                   RCH =    42273034.9440     RCH_0           

            TOTAL IN = 44136849340.8071              TOTAL IN =    51127617.9929

          OUT:                                     OUT:
          ----                                     ----
              STO-SS =           0.0000                STO-SS =           0.0000     STORAGE         
              STO-SY = 10640200245.9968                STO-SY =    28327183.6745     STORAGE         
                 WEL =  8195945862.4145                   WEL =     2658831.5743     WEL_0           
                 DRN = 25300693749.9417                   DRN =    20141600.8156     DRN_0           
                 RCH =           0.0000                   RCH =           0.0000     RCH_0           

           TOTAL OUT = 44136839858.3530             TOTAL OUT =    51127616.0643

            IN - OUT =        9482.4540              IN - OUT =           1.9286

 PERCENT DISCREPANCY =           0.00     PERCENT DISCREPANCY =           0.00




         TIME SUMMARY AT END OF TIME STEP    1 IN STRESS PERIOD  752
                          TIME STEP LENGTH =    1.00000    
                        STRESS PERIOD TIME =    1.00000    
                     TOTAL SIMULATION TIME =    752.000    

end timestep


start timestep kper="753" kstp="1" mode="normal"


 OUTPUT CONTROL FOR STRESS PERIOD 753 IS REPEATED USING SETTINGS FROM A PREVIOUS STRESS PERIOD.


 STRESS PERIOD 753 IS TRANSIENT


 REUSING WELS FROM LAST STRESS PERIOD

 REUSING DRNS FROM LAST STRESS PERIOD

 REUSING RCHS FROM LAST STRESS PERIOD


  VOLUME BUDGET FOR ENTIRE MODEL AT END OF TIME STEP    1, STRESS PERIOD 753
  ---------------------------------------------------------------------------------------------------

     CUMULATIVE VOLUME      L**3       RATES FOR THIS TIME STEP      L**3/T          PACKAGE NAME    
     ------------------                 ------------------------                     ----------------

           IN:                                      IN:
           ---                                      ---
              STO-SS =           0.0000                STO-SS =           0.0000     STORAGE         
              STO-SY = 14099319352.0034                STO-SY =     9995756.5642     STORAGE         
                 WEL =           0.0000                   WEL =           0.0000     WEL_0           
                 DRN =           0.0000                   DRN =           0.0000     DRN_0           
                 RCH = 30073936863.9487                   RCH =    26411118.5809     RCH_0           

            TOTAL IN = 44173256215.9521              TOTAL IN =    36406875.1451

          OUT:                                     OUT:
          ----                                     ----
              STO-SS =           0.0000                STO-SS =           0.0000     STORAGE         
              STO-SY = 10655011622.6182                STO-SY =    14811376.6214     STORAGE         
                 WEL =  8197653734.6188                   WEL =     1707872.2043     WEL_0           
                 DRN = 25320581376.2058                   DRN =    19887626.2641     DRN_0           
                 RCH =           0.0000                   RCH =           0.0000     RCH_0           

           TOTAL OUT = 44173246733.4428             TOTAL OUT =    36406875.0898

            IN - OUT =        9482.5093              IN - OUT =       5.5259E-02

 PERCENT DISCREPANCY =           0.00     PERCENT DISCREPANCY =           0.00




         TIME SUMMARY AT END OF TIME STEP    1 IN STRESS PERIOD  753
                          TIME STEP LENGTH =    1.00000    
                        STRESS PERIOD TIME =    1.00000    
                     TOTAL SIMULATION TIME =    753.000    

end timestep


start timestep kper="754" kstp="1" mode="normal"


 OUTPUT CONTROL FOR STRESS PERIOD 754 IS REPEATED USING SETTINGS FROM A PREVIOUS STRESS PERIOD.


 STRESS PERIOD 754 IS TRANSIENT


 REUSING WELS FROM LAST STRESS PERIOD

 REUSING DRNS FROM LAST STRESS PERIOD

 REUSING RCHS FROM LAST STRESS PERIOD


  VOLUME BUDGET FOR ENTIRE MODEL AT END OF TIME STEP    1, STRESS PERIOD 754
  ---------------------------------------------------------------------------------------------------

     CUMULATIVE VOLUME      L**3       RATES FOR THIS TIME STEP      L**3/T          PACKAGE NAME    
     ------------------                 ------------------------                     ----------------

           IN:                                      IN:
           ---                                      ---
              STO-SS =           0.0000                STO-SS =           0.0000     STORAGE         
              STO-SY = 14107790545.6200                STO-SY =     8471193.6165     STORAGE         
                 WEL =           0.0000                   WEL =           0.0000     WEL_0           
                 DRN =           0.0000                   DRN =           0.0000     DRN_0           
                 RCH = 30113803309.6172                   RCH =    39866445.6686     RCH_0           

            TOTAL IN = 44221593855.2372              TOTAL IN =    48337639.2851

          OUT:                                     OUT:
          ----                                     ----
              STO-SS =           0.0000                STO-SS =           0.0000     STORAGE         
              STO-SY = 10680728552.4788                STO-SY =    25716929.8606     STORAGE         
                 WEL =  8199765559.8593                   WEL =     2111825.2405     WEL_0           
                 DRN = 25341090253.6575                   DRN =    20508877.4516     DRN_0           
                 RCH =           0.0000                   RCH =           0.0000     RCH_0           

           TOTAL OUT = 44221584365.9955             TOTAL OUT =    48337632.5527

            IN - OUT =        9489.2417              IN - OUT =           6.7324

 PERCENT DISCREPANCY =           0.00     PERCENT DISCREPANCY =           0.00




         TIME SUMMARY AT END OF TIME STEP    1 IN STRESS PERIOD  754
                          TIME STEP LENGTH =    1.00000    
                        STRESS PERIOD TIME =    1.00000    
                     TOTAL SIMULATION TIME =    754.000    

end timestep


start timestep kper="755" kstp="1" mode="normal"


 OUTPUT CONTROL FOR STRESS PERIOD 755 IS REPEATED USING SETTINGS FROM A PREVIOUS STRESS PERIOD.


 STRESS PERIOD 755 IS TRANSIENT


 REUSING WELS FROM LAST STRESS PERIOD

 REUSING DRNS FROM LAST STRESS PERIOD

 REUSING RCHS FROM LAST STRESS PERIOD


  VOLUME BUDGET FOR ENTIRE MODEL AT END OF TIME STEP    1, STRESS PERIOD 755
  ---------------------------------------------------------------------------------------------------

     CUMULATIVE VOLUME      L**3       RATES FOR THIS TIME STEP      L**3/T          PACKAGE NAME    
     ------------------                 ------------------------                     ----------------

           IN:                                      IN:
           ---                                      ---
              STO-SS =           0.0000                STO-SS =           0.0000     STORAGE         
              STO-SY = 14108600776.8077                STO-SY =      810231.1877     STORAGE         
                 WEL =           0.0000                   WEL =           0.0000     WEL_0           
                 DRN =           0.0000                   DRN =           0.0000     DRN_0           
                 RCH = 30264989149.3384                   RCH =   151185839.7212     RCH_0           

            TOTAL IN = 44373589926.1461              TOTAL IN =   151996070.9089

          OUT:                                     OUT:
          ----                                     ----
              STO-SS =           0.0000                STO-SS =           0.0000     STORAGE         
              STO-SY = 10801005370.9537                STO-SY =   120276818.4749     STORAGE         
                 WEL =  8201200796.5745                   WEL =     1435236.7153     WEL_0           
                 DRN = 25371374268.8101                   DRN =    30284015.1526     DRN_0           
                 RCH =           0.0000                   RCH =           0.0000     RCH_0           

           TOTAL OUT = 44373580436.3383             TOTAL OUT =   151996070.3428

            IN - OUT =        9489.8078              IN - OUT =           0.5662

 PERCENT DISCREPANCY =           0.00     PERCENT DISCREPANCY =           0.00




         TIME SUMMARY AT END OF TIME STEP    1 IN STRESS PERIOD  755
                          TIME STEP LENGTH =    1.00000    
                        STRESS PERIOD TIME =    1.00000    
                     TOTAL SIMULATION TIME =    755.000    

end timestep


start timestep kper="756" kstp="1" mode="normal"


 OUTPUT CONTROL FOR STRESS PERIOD 756 IS REPEATED USING SETTINGS FROM A PREVIOUS STRESS PERIOD.


 STRESS PERIOD 756 IS TRANSIENT


 REUSING WELS FROM LAST STRESS PERIOD

 REUSING DRNS FROM LAST STRESS PERIOD

 REUSING RCHS FROM LAST STRESS PERIOD


  VOLUME BUDGET FOR ENTIRE MODEL AT END OF TIME STEP    1, STRESS PERIOD 756
  ---------------------------------------------------------------------------------------------------

     CUMULATIVE VOLUME      L**3       RATES FOR THIS TIME STEP      L**3/T          PACKAGE NAME    
     ------------------                 ------------------------                     ----------------

           IN:                                      IN:
           ---                                      ---
              STO-SS =           0.0000                STO-SS =           0.0000     STORAGE         
              STO-SY = 14110156280.1606                STO-SY =     1555503.3530     STORAGE         
                 WEL =           0.0000                   WEL =           0.0000     WEL_0           
                 DRN =           0.0000                   DRN =           0.0000     DRN_0           
                 RCH = 30392304987.9546                   RCH =   127315838.6162     RCH_0           

            TOTAL IN = 44502461268.1153              TOTAL IN =   128871341.9692

          OUT:                                     OUT:
          ----                                     ----
              STO-SS =           0.0000                STO-SS =           0.0000     STORAGE         
              STO-SY = 10898797230.2973                STO-SY =    97791859.3436     STORAGE         
                 WEL =  8202660278.1770                   WEL =     1459481.6025     WEL_0           
                 DRN = 25400994223.6339                   DRN =    29619954.8238     DRN_0           
                 RCH =           0.0000                   RCH =           0.0000     RCH_0           

           TOTAL OUT = 44502451732.1082             TOTAL OUT =   128871295.7699

            IN - OUT =        9536.0070              IN - OUT =          46.1992

 PERCENT DISCREPANCY =           0.00     PERCENT DISCREPANCY =           0.00




         TIME SUMMARY AT END OF TIME STEP    1 IN STRESS PERIOD  756
                          TIME STEP LENGTH =    1.00000    
                        STRESS PERIOD TIME =    1.00000    
                     TOTAL SIMULATION TIME =    756.000    

end timestep


start timestep kper="757" kstp="1" mode="normal"


 OUTPUT CONTROL FOR STRESS PERIOD 757 IS REPEATED USING SETTINGS FROM A PREVIOUS STRESS PERIOD.


 STRESS PERIOD 757 IS TRANSIENT


 REUSING WELS FROM LAST STRESS PERIOD

 REUSING DRNS FROM LAST STRESS PERIOD

 REUSING RCHS FROM LAST STRESS PERIOD


  VOLUME BUDGET FOR ENTIRE MODEL AT END OF TIME STEP    1, STRESS PERIOD 757
  ---------------------------------------------------------------------------------------------------

     CUMULATIVE VOLUME      L**3       RATES FOR THIS TIME STEP      L**3/T          PACKAGE NAME    
     ------------------                 ------------------------                     ----------------

           IN:                                      IN:
           ---                                      ---
              STO-SS =           0.0000                STO-SS =           0.0000     STORAGE         
              STO-SY = 14116953574.5315                STO-SY =     6797294.3709     STORAGE         
                 WEL =           0.0000                   WEL =           0.0000     WEL_0           
                 DRN =           0.0000                   DRN =           0.0000     DRN_0           
                 RCH = 30427223862.4130                   RCH =    34918874.4583     RCH_0           

            TOTAL IN = 44544177436.9445              TOTAL IN =    41716168.8292

          OUT:                                     OUT:
          ----                                     ----
              STO-SS =           0.0000                STO-SS =           0.0000     STORAGE         
              STO-SY = 10914330075.3029                STO-SY =    15532845.0056     STORAGE         
                 WEL =  8204245783.3649                   WEL =     1585505.1879     WEL_0           
                 DRN = 25425592044.5500                   DRN =    24597820.9162     DRN_0           
                 RCH =           0.0000                   RCH =           0.0000     RCH_0           

           TOTAL OUT = 44544167903.2178             TOTAL OUT =    41716171.1096

            IN - OUT =        9533.7267              IN - OUT =          -2.2804

 PERCENT DISCREPANCY =           0.00     PERCENT DISCREPANCY =          -0.00




         TIME SUMMARY AT END OF TIME STEP    1 IN STRESS PERIOD  757
                          TIME STEP LENGTH =    1.00000    
                        STRESS PERIOD TIME =    1.00000    
                     TOTAL SIMULATION TIME =    757.000    

end timestep


start timestep kper="758" kstp="1" mode="normal"


 OUTPUT CONTROL FOR STRESS PERIOD 758 IS REPEATED USING SETTINGS FROM A PREVIOUS STRESS PERIOD.


 STRESS PERIOD 758 IS TRANSIENT


 REUSING WELS FROM LAST STRESS PERIOD

 REUSING DRNS FROM LAST STRESS PERIOD

 REUSING RCHS FROM LAST STRESS PERIOD


  VOLUME BUDGET FOR ENTIRE MODEL AT END OF TIME STEP    1, STRESS PERIOD 758
  ---------------------------------------------------------------------------------------------------

     CUMULATIVE VOLUME      L**3       RATES FOR THIS TIME STEP      L**3/T          PACKAGE NAME    
     ------------------                 ------------------------                     ----------------

           IN:                                      IN:
           ---                                      ---
              STO-SS =           0.0000                STO-SS =           0.0000     STORAGE         
              STO-SY = 14125434259.2893                STO-SY =     8480684.7578     STORAGE         
                 WEL =           0.0000                   WEL =           0.0000     WEL_0           
                 DRN =           0.0000                   DRN =           0.0000     DRN_0           
                 RCH = 30461802020.0792                   RCH =    34578157.6662     RCH_0           

            TOTAL IN = 44587236279.3685              TOTAL IN =    43058842.4240

          OUT:                                     OUT:
          ----                                     ----
              STO-SS =           0.0000                STO-SS =           0.0000     STORAGE         
              STO-SY = 10930646443.9435                STO-SY =    16316368.6406     STORAGE         
                 WEL =  8207594337.5289                   WEL =     3348554.1640     WEL_0           
                 DRN = 25448985964.4482                   DRN =    23393919.8982     DRN_0           
                 RCH =           0.0000                   RCH =           0.0000     RCH_0           

           TOTAL OUT = 44587226745.9207             TOTAL OUT =    43058842.7028

            IN - OUT =        9533.4479              IN - OUT =          -0.2788

 PERCENT DISCREPANCY =           0.00     PERCENT DISCREPANCY =          -0.00




         TIME SUMMARY AT END OF TIME STEP    1 IN STRESS PERIOD  758
                          TIME STEP LENGTH =    1.00000    
                        STRESS PERIOD TIME =    1.00000    
                     TOTAL SIMULATION TIME =    758.000    

end timestep


start timestep kper="759" kstp="1" mode="normal"


 OUTPUT CONTROL FOR STRESS PERIOD 759 IS REPEATED USING SETTINGS FROM A PREVIOUS STRESS PERIOD.


 STRESS PERIOD 759 IS TRANSIENT


 REUSING WELS FROM LAST STRESS PERIOD

 REUSING DRNS FROM LAST STRESS PERIOD

 REUSING RCHS FROM LAST STRESS PERIOD


  VOLUME BUDGET FOR ENTIRE MODEL AT END OF TIME STEP    1, STRESS PERIOD 759
  ---------------------------------------------------------------------------------------------------

     CUMULATIVE VOLUME      L**3       RATES FOR THIS TIME STEP      L**3/T          PACKAGE NAME    
     ------------------                 ------------------------                     ----------------

           IN:                                      IN:
           ---                                      ---
              STO-SS =           0.0000                STO-SS =           0.0000     STORAGE         
              STO-SY = 14133345528.6213                STO-SY =     7911269.3320     STORAGE         
                 WEL =           0.0000                   WEL =           0.0000     WEL_0           
                 DRN =           0.0000                   DRN =           0.0000     DRN_0           
                 RCH = 30500232700.4886                   RCH =    38430680.4094     RCH_0           

            TOTAL IN = 44633578229.1099              TOTAL IN =    46341949.7414

          OUT:                                     OUT:
          ----                                     ----
              STO-SS =           0.0000                STO-SS =           0.0000     STORAGE         
              STO-SY = 10948999784.5996                STO-SY =    18353340.6561     STORAGE         
                 WEL =  8211320679.3088                   WEL =     3726341.7799     WEL_0           
                 DRN = 25473248231.7148                   DRN =    24262267.2666     DRN_0           
                 RCH =           0.0000                   RCH =           0.0000     RCH_0           

           TOTAL OUT = 44633568695.6232             TOTAL OUT =    46341949.7025

            IN - OUT =        9533.4867              IN - OUT =       3.8876E-02

 PERCENT DISCREPANCY =           0.00     PERCENT DISCREPANCY =           0.00




         TIME SUMMARY AT END OF TIME STEP    1 IN STRESS PERIOD  759
                          TIME STEP LENGTH =    1.00000    
                        STRESS PERIOD TIME =    1.00000    
                     TOTAL SIMULATION TIME =    759.000    

end timestep


start timestep kper="760" kstp="1" mode="normal"


 OUTPUT CONTROL FOR STRESS PERIOD 760 IS REPEATED USING SETTINGS FROM A PREVIOUS STRESS PERIOD.


 STRESS PERIOD 760 IS TRANSIENT


 REUSING WELS FROM LAST STRESS PERIOD

 REUSING DRNS FROM LAST STRESS PERIOD

 REUSING RCHS FROM LAST STRESS PERIOD


  VOLUME BUDGET FOR ENTIRE MODEL AT END OF TIME STEP    1, STRESS PERIOD 760
  ---------------------------------------------------------------------------------------------------

     CUMULATIVE VOLUME      L**3       RATES FOR THIS TIME STEP      L**3/T          PACKAGE NAME    
     ------------------                 ------------------------                     ----------------

           IN:                                      IN:
           ---                                      ---
              STO-SS =           0.0000                STO-SS =           0.0000     STORAGE         
              STO-SY = 14137723804.8763                STO-SY =     4378276.2551     STORAGE         
                 WEL =           0.0000                   WEL =           0.0000     WEL_0           
                 DRN =           0.0000                   DRN =           0.0000     DRN_0           
                 RCH = 30537326533.9960                   RCH =    37093833.5074     RCH_0           

            TOTAL IN = 44675050338.8723              TOTAL IN =    41472109.7624

          OUT:                                     OUT:
          ----                                     ----
              STO-SS =           0.0000                STO-SS =           0.0000     STORAGE         
              STO-SY = 10965338183.1400                STO-SY =    16338398.5404     STORAGE         
                 WEL =  8213046242.3548                   WEL =     1725563.0460     WEL_0           
                 DRN = 25496656376.5602                   DRN =    23408144.8454     DRN_0           
                 RCH =           0.0000                   RCH =           0.0000     RCH_0           

           TOTAL OUT = 44675040802.0550             TOTAL OUT =    41472106.4318

            IN - OUT =        9536.8174              IN - OUT =           3.3306

 PERCENT DISCREPANCY =           0.00     PERCENT DISCREPANCY =           0.00




         TIME SUMMARY AT END OF TIME STEP    1 IN STRESS PERIOD  760
                          TIME STEP LENGTH =    1.00000    
                        STRESS PERIOD TIME =    1.00000    
                     TOTAL SIMULATION TIME =    760.000    

end timestep


start timestep kper="761" kstp="1" mode="normal"


 OUTPUT CONTROL FOR STRESS PERIOD 761 IS REPEATED USING SETTINGS FROM A PREVIOUS STRESS PERIOD.


 STRESS PERIOD 761 IS TRANSIENT


 REUSING WELS FROM LAST STRESS PERIOD

 REUSING DRNS FROM LAST STRESS PERIOD

 REUSING RCHS FROM LAST STRESS PERIOD


  VOLUME BUDGET FOR ENTIRE MODEL AT END OF TIME STEP    1, STRESS PERIOD 761
  ---------------------------------------------------------------------------------------------------

     CUMULATIVE VOLUME      L**3       RATES FOR THIS TIME STEP      L**3/T          PACKAGE NAME    
     ------------------                 ------------------------                     ----------------

           IN:                                      IN:
           ---                                      ---
              STO-SS =           0.0000                STO-SS =           0.0000     STORAGE         
              STO-SY = 14146820414.8488                STO-SY =     9096609.9725     STORAGE         
                 WEL =           0.0000                   WEL =           0.0000     WEL_0           
                 DRN =           0.0000                   DRN =           0.0000     DRN_0           
                 RCH = 30562057924.6616                   RCH =    24731390.6656     RCH_0           

            TOTAL IN = 44708878339.5104              TOTAL IN =    33828000.6381

          OUT:                                     OUT:
          ----                                     ----
              STO-SS =           0.0000                STO-SS =           0.0000     STORAGE         
              STO-SY = 10974076821.4178                STO-SY =     8738638.2779     STORAGE         
                 WEL =  8214723037.2035                   WEL =     1676794.8486     WEL_0           
                 DRN = 25520068941.5676                   DRN =    23412565.0074     DRN_0           
                 RCH =           0.0000                   RCH =           0.0000     RCH_0           

           TOTAL OUT = 44708868800.1889             TOTAL OUT =    33827998.1339

            IN - OUT =        9539.3215              IN - OUT =           2.5042

 PERCENT DISCREPANCY =           0.00     PERCENT DISCREPANCY =           0.00




         TIME SUMMARY AT END OF TIME STEP    1 IN STRESS PERIOD  761
                          TIME STEP LENGTH =    1.00000    
                        STRESS PERIOD TIME =    1.00000    
                     TOTAL SIMULATION TIME =    761.000    

end timestep


start timestep kper="762" kstp="1" mode="normal"


 OUTPUT CONTROL FOR STRESS PERIOD 762 IS REPEATED USING SETTINGS FROM A PREVIOUS STRESS PERIOD.


 STRESS PERIOD 762 IS TRANSIENT


 REUSING WELS FROM LAST STRESS PERIOD

 REUSING DRNS FROM LAST STRESS PERIOD

 REUSING RCHS FROM LAST STRESS PERIOD


  VOLUME BUDGET FOR ENTIRE MODEL AT END OF TIME STEP    1, STRESS PERIOD 762
  ---------------------------------------------------------------------------------------------------

     CUMULATIVE VOLUME      L**3       RATES FOR THIS TIME STEP      L**3/T          PACKAGE NAME    
     ------------------                 ------------------------                     ----------------

           IN:                                      IN:
           ---                                      ---
              STO-SS =           0.0000                STO-SS =           0.0000     STORAGE         
              STO-SY = 14159252019.1469                STO-SY =    12431604.2980     STORAGE         
                 WEL =           0.0000                   WEL =           0.0000     WEL_0           
                 DRN =           0.0000                   DRN =           0.0000     DRN_0           
                 RCH = 30591762875.8237                   RCH =    29704951.1621     RCH_0           

            TOTAL IN = 44751014894.9706              TOTAL IN =    42136555.4601

          OUT:                                     OUT:
          ----                                     ----
              STO-SS =           0.0000                STO-SS =           0.0000     STORAGE         
              STO-SY = 10984548937.7071                STO-SY =    10472116.2893     STORAGE         
                 WEL =  8224499447.2024                   WEL =     9776409.9989     WEL_0           
                 DRN = 25541956970.0041                   DRN =    21888028.4365     DRN_0           
                 RCH =           0.0000                   RCH =           0.0000     RCH_0           

           TOTAL OUT = 44751005354.9135             TOTAL OUT =    42136554.7246

            IN - OUT =        9540.0570              IN - OUT =           0.7355

 PERCENT DISCREPANCY =           0.00     PERCENT DISCREPANCY =           0.00




         TIME SUMMARY AT END OF TIME STEP    1 IN STRESS PERIOD  762
                          TIME STEP LENGTH =    1.00000    
                        STRESS PERIOD TIME =    1.00000    
                     TOTAL SIMULATION TIME =    762.000    

end timestep


start timestep kper="763" kstp="1" mode="normal"


 OUTPUT CONTROL FOR STRESS PERIOD 763 IS REPEATED USING SETTINGS FROM A PREVIOUS STRESS PERIOD.


 STRESS PERIOD 763 IS TRANSIENT


 REUSING WELS FROM LAST STRESS PERIOD

 REUSING DRNS FROM LAST STRESS PERIOD

 REUSING RCHS FROM LAST STRESS PERIOD


  VOLUME BUDGET FOR ENTIRE MODEL AT END OF TIME STEP    1, STRESS PERIOD 763
  ---------------------------------------------------------------------------------------------------

     CUMULATIVE VOLUME      L**3       RATES FOR THIS TIME STEP      L**3/T          PACKAGE NAME    
     ------------------                 ------------------------                     ----------------

           IN:                                      IN:
           ---                                      ---
              STO-SS =           0.0000                STO-SS =           0.0000     STORAGE         
              STO-SY = 14162081364.5192                STO-SY =     2829345.3723     STORAGE         
                 WEL =           0.0000                   WEL =           0.0000     WEL_0           
                 DRN =           0.0000                   DRN =           0.0000     DRN_0           
                 RCH = 30708807373.0539                   RCH =   117044497.2302     RCH_0           

            TOTAL IN = 44870888737.5731              TOTAL IN =   119873842.6025

          OUT:                                     OUT:
          ----                                     ----
              STO-SS =           0.0000                STO-SS =           0.0000     STORAGE         
              STO-SY = 11060138135.5065                STO-SY =    75589197.7994     STORAGE         
                 WEL =  8234938412.5630                   WEL =    10438965.3607     WEL_0           
                 DRN = 25575802649.0938                   DRN =    33845679.0897     DRN_0           
                 RCH =           0.0000                   RCH =           0.0000     RCH_0           

           TOTAL OUT = 44870879197.1633             TOTAL OUT =   119873842.2498

            IN - OUT =        9540.4097              IN - OUT =           0.3527

 PERCENT DISCREPANCY =           0.00     PERCENT DISCREPANCY =           0.00




         TIME SUMMARY AT END OF TIME STEP    1 IN STRESS PERIOD  763
                          TIME STEP LENGTH =    1.00000    
                        STRESS PERIOD TIME =    1.00000    
                     TOTAL SIMULATION TIME =    763.000    

end timestep


start timestep kper="764" kstp="1" mode="normal"


 OUTPUT CONTROL FOR STRESS PERIOD 764 IS REPEATED USING SETTINGS FROM A PREVIOUS STRESS PERIOD.


 STRESS PERIOD 764 IS TRANSIENT


 REUSING WELS FROM LAST STRESS PERIOD

 REUSING DRNS FROM LAST STRESS PERIOD

 REUSING RCHS FROM LAST STRESS PERIOD


  VOLUME BUDGET FOR ENTIRE MODEL AT END OF TIME STEP    1, STRESS PERIOD 764
  ---------------------------------------------------------------------------------------------------

     CUMULATIVE VOLUME      L**3       RATES FOR THIS TIME STEP      L**3/T          PACKAGE NAME    
     ------------------                 ------------------------                     ----------------

           IN:                                      IN:
           ---                                      ---
              STO-SS =           0.0000                STO-SS =           0.0000     STORAGE         
              STO-SY = 14165299147.0464                STO-SY =     3217782.5272     STORAGE         
                 WEL =           0.0000                   WEL =           0.0000     WEL_0           
                 DRN =           0.0000                   DRN =           0.0000     DRN_0           
                 RCH = 30800853599.9466                   RCH =    92046226.8927     RCH_0           

            TOTAL IN = 44966152746.9930              TOTAL IN =    95264009.4199

          OUT:                                     OUT:
          ----                                     ----
              STO-SS =           0.0000                STO-SS =           0.0000     STORAGE         
              STO-SY = 11120516168.7131                STO-SY =    60378033.2065     STORAGE         
                 WEL =  8241188002.3834                   WEL =     6249589.8204     WEL_0           
                 DRN = 25604439034.1869                   DRN =    28636385.0931     DRN_0           
                 RCH =           0.0000                   RCH =           0.0000     RCH_0           

           TOTAL OUT = 44966143205.2834             TOTAL OUT =    95264008.1200

            IN - OUT =        9541.7096              IN - OUT =           1.2999

 PERCENT DISCREPANCY =           0.00     PERCENT DISCREPANCY =           0.00




         TIME SUMMARY AT END OF TIME STEP    1 IN STRESS PERIOD  764
                          TIME STEP LENGTH =    1.00000    
                        STRESS PERIOD TIME =    1.00000    
                     TOTAL SIMULATION TIME =    764.000    

end timestep


start timestep kper="765" kstp="1" mode="normal"


 OUTPUT CONTROL FOR STRESS PERIOD 765 IS REPEATED USING SETTINGS FROM A PREVIOUS STRESS PERIOD.


 STRESS PERIOD 765 IS TRANSIENT


 REUSING WELS FROM LAST STRESS PERIOD

 REUSING DRNS FROM LAST STRESS PERIOD

 REUSING RCHS FROM LAST STRESS PERIOD


  VOLUME BUDGET FOR ENTIRE MODEL AT END OF TIME STEP    1, STRESS PERIOD 765
  ---------------------------------------------------------------------------------------------------

     CUMULATIVE VOLUME      L**3       RATES FOR THIS TIME STEP      L**3/T          PACKAGE NAME    
     ------------------                 ------------------------                     ----------------

           IN:                                      IN:
           ---                                      ---
              STO-SS =           0.0000                STO-SS =           0.0000     STORAGE         
              STO-SY = 14174288311.4165                STO-SY =     8989164.3701     STORAGE         
                 WEL =           0.0000                   WEL =           0.0000     WEL_0           
                 DRN =           0.0000                   DRN =           0.0000     DRN_0           
                 RCH = 30851019376.3831                   RCH =    50165776.4366     RCH_0           

            TOTAL IN = 45025307687.7997              TOTAL IN =    59154940.8067

          OUT:                                     OUT:
          ----                                     ----
              STO-SS =           0.0000                STO-SS =           0.0000     STORAGE         
              STO-SY = 11142571225.9251                STO-SY =    22055057.2120     STORAGE         
                 WEL =  8250824315.5653                   WEL =     9636313.1819     WEL_0           
                 DRN = 25631902597.9236                   DRN =    27463563.7368     DRN_0           
                 RCH =           0.0000                   RCH =           0.0000     RCH_0           

           TOTAL OUT = 45025298139.4140             TOTAL OUT =    59154934.1306

            IN - OUT =        9548.3856              IN - OUT =           6.6760

 PERCENT DISCREPANCY =           0.00     PERCENT DISCREPANCY =           0.00




         TIME SUMMARY AT END OF TIME STEP    1 IN STRESS PERIOD  765
                          TIME STEP LENGTH =    1.00000    
                        STRESS PERIOD TIME =    1.00000    
                     TOTAL SIMULATION TIME =    765.000    

end timestep


start timestep kper="766" kstp="1" mode="normal"


 OUTPUT CONTROL FOR STRESS PERIOD 766 IS REPEATED USING SETTINGS FROM A PREVIOUS STRESS PERIOD.


 STRESS PERIOD 766 IS TRANSIENT


 REUSING WELS FROM LAST STRESS PERIOD

 REUSING DRNS FROM LAST STRESS PERIOD

 REUSING RCHS FROM LAST STRESS PERIOD


  VOLUME BUDGET FOR ENTIRE MODEL AT END OF TIME STEP    1, STRESS PERIOD 766
  ---------------------------------------------------------------------------------------------------

     CUMULATIVE VOLUME      L**3       RATES FOR THIS TIME STEP      L**3/T          PACKAGE NAME    
     ------------------                 ------------------------                     ----------------

           IN:                                      IN:
           ---                                      ---
              STO-SS =           0.0000                STO-SS =           0.0000     STORAGE         
              STO-SY = 14187971454.1510                STO-SY =    13683142.7345     STORAGE         
                 WEL =           0.0000                   WEL =           0.0000     WEL_0           
                 DRN =           0.0000                   DRN =           0.0000     DRN_0           
                 RCH = 30875751732.3435                   RCH =    24732355.9603     RCH_0           

            TOTAL IN = 45063723186.4945              TOTAL IN =    38415498.6948

          OUT:                                     OUT:
          ----                                     ----
              STO-SS =           0.0000                STO-SS =           0.0000     STORAGE         
              STO-SY = 11149745366.0103                STO-SY =     7174140.0853     STORAGE         
                 WEL =  8258635591.1059                   WEL =     7811275.5405     WEL_0           
                 DRN = 25655332684.3851                   DRN =    23430086.4614     DRN_0           
                 RCH =           0.0000                   RCH =           0.0000     RCH_0           

           TOTAL OUT = 45063713641.5012             TOTAL OUT =    38415502.0872

            IN - OUT =        9544.9932              IN - OUT =          -3.3924

 PERCENT DISCREPANCY =           0.00     PERCENT DISCREPANCY =          -0.00




         TIME SUMMARY AT END OF TIME STEP    1 IN STRESS PERIOD  766
                          TIME STEP LENGTH =    1.00000    
                        STRESS PERIOD TIME =    1.00000    
                     TOTAL SIMULATION TIME =    766.000    

end timestep


start timestep kper="767" kstp="1" mode="normal"


 OUTPUT CONTROL FOR STRESS PERIOD 767 IS REPEATED USING SETTINGS FROM A PREVIOUS STRESS PERIOD.


 STRESS PERIOD 767 IS TRANSIENT


 REUSING WELS FROM LAST STRESS PERIOD

 REUSING DRNS FROM LAST STRESS PERIOD

 REUSING RCHS FROM LAST STRESS PERIOD


  VOLUME BUDGET FOR ENTIRE MODEL AT END OF TIME STEP    1, STRESS PERIOD 767
  ---------------------------------------------------------------------------------------------------

     CUMULATIVE VOLUME      L**3       RATES FOR THIS TIME STEP      L**3/T          PACKAGE NAME    
     ------------------                 ------------------------                     ----------------

           IN:                                      IN:
           ---                                      ---
              STO-SS =           0.0000                STO-SS =           0.0000     STORAGE         
              STO-SY = 14197187979.8833                STO-SY =     9216525.7323     STORAGE         
                 WEL =           0.0000                   WEL =           0.0000     WEL_0           
                 DRN =           0.0000                   DRN =           0.0000     DRN_0           
                 RCH = 30923769883.4195                   RCH =    48018151.0760     RCH_0           

            TOTAL IN = 45120957863.3028              TOTAL IN =    57234676.8083

          OUT:                                     OUT:
          ----                                     ----
              STO-SS =           0.0000                STO-SS =           0.0000     STORAGE         
              STO-SY = 11174849266.8139                STO-SY =    25103900.8036     STORAGE         
                 WEL =  8265098723.6646                   WEL =     6463132.5587     WEL_0           
                 DRN = 25681000332.7664                   DRN =    25667648.3813     DRN_0           
                 RCH =           0.0000                   RCH =           0.0000     RCH_0           

           TOTAL OUT = 45120948323.2449             TOTAL OUT =    57234681.7436

            IN - OUT =        9540.0579              IN - OUT =          -4.9353

 PERCENT DISCREPANCY =           0.00     PERCENT DISCREPANCY =          -0.00




         TIME SUMMARY AT END OF TIME STEP    1 IN STRESS PERIOD  767
                          TIME STEP LENGTH =    1.00000    
                        STRESS PERIOD TIME =    1.00000    
                     TOTAL SIMULATION TIME =    767.000    

end timestep


start timestep kper="768" kstp="1" mode="normal"


 OUTPUT CONTROL FOR STRESS PERIOD 768 IS REPEATED USING SETTINGS FROM A PREVIOUS STRESS PERIOD.


 STRESS PERIOD 768 IS TRANSIENT


 REUSING WELS FROM LAST STRESS PERIOD

 REUSING DRNS FROM LAST STRESS PERIOD

 REUSING RCHS FROM LAST STRESS PERIOD


  VOLUME BUDGET FOR ENTIRE MODEL AT END OF TIME STEP    1, STRESS PERIOD 768
  ---------------------------------------------------------------------------------------------------

     CUMULATIVE VOLUME      L**3       RATES FOR THIS TIME STEP      L**3/T          PACKAGE NAME    
     ------------------                 ------------------------                     ----------------

           IN:                                      IN:
           ---                                      ---
              STO-SS =           0.0000                STO-SS =           0.0000     STORAGE         
              STO-SY = 14201703390.5225                STO-SY =     4515410.6392     STORAGE         
                 WEL =           0.0000                   WEL =           0.0000     WEL_0           
                 DRN =           0.0000                   DRN =           0.0000     DRN_0           
                 RCH = 31020406663.5266                   RCH =    96636780.1071     RCH_0           

            TOTAL IN = 45222110054.0490              TOTAL IN =   101152190.7462

          OUT:                                     OUT:
          ----                                     ----
              STO-SS =           0.0000                STO-SS =           0.0000     STORAGE         
              STO-SY = 11242315605.9259                STO-SY =    67466339.1119     STORAGE         
                 WEL =  8270692921.9101                   WEL =     5594198.2455     WEL_0           
                 DRN = 25709091982.7249                   DRN =    28091649.9586     DRN_0           
                 RCH =           0.0000                   RCH =           0.0000     RCH_0           

           TOTAL OUT = 45222100510.5609             TOTAL OUT =   101152187.3160

            IN - OUT =        9543.4881              IN - OUT =           3.4302

 PERCENT DISCREPANCY =           0.00     PERCENT DISCREPANCY =           0.00




         TIME SUMMARY AT END OF TIME STEP    1 IN STRESS PERIOD  768
                          TIME STEP LENGTH =    1.00000    
                        STRESS PERIOD TIME =    1.00000    
                     TOTAL SIMULATION TIME =    768.000    

end timestep


start timestep kper="769" kstp="1" mode="normal"


 OUTPUT CONTROL FOR STRESS PERIOD 769 IS REPEATED USING SETTINGS FROM A PREVIOUS STRESS PERIOD.


 STRESS PERIOD 769 IS TRANSIENT


 REUSING WELS FROM LAST STRESS PERIOD

 REUSING DRNS FROM LAST STRESS PERIOD

 REUSING RCHS FROM LAST STRESS PERIOD


  VOLUME BUDGET FOR ENTIRE MODEL AT END OF TIME STEP    1, STRESS PERIOD 769
  ---------------------------------------------------------------------------------------------------

     CUMULATIVE VOLUME      L**3       RATES FOR THIS TIME STEP      L**3/T          PACKAGE NAME    
     ------------------                 ------------------------                     ----------------

           IN:                                      IN:
           ---                                      ---
              STO-SS =           0.0000                STO-SS =           0.0000     STORAGE         
              STO-SY = 14210741097.0871                STO-SY =     9037706.5647     STORAGE         
                 WEL =           0.0000                   WEL =           0.0000     WEL_0           
                 DRN =           0.0000                   DRN =           0.0000     DRN_0           
                 RCH = 31056654954.1685                   RCH =    36248290.6419     RCH_0           

            TOTAL IN = 45267396051.2556              TOTAL IN =    45285997.2065

          OUT:                                     OUT:
          ----                                     ----
              STO-SS =           0.0000                STO-SS =           0.0000     STORAGE         
              STO-SY = 11255288583.3586                STO-SY =    12972977.4327     STORAGE         
                 WEL =  8276423227.7673                   WEL =     5730305.8572     WEL_0           
                 DRN = 25735674698.7688                   DRN =    26582716.0438     DRN_0           
                 RCH =           0.0000                   RCH =           0.0000     RCH_0           

           TOTAL OUT = 45267386509.8947             TOTAL OUT =    45285999.3337

            IN - OUT =        9541.3609              IN - OUT =          -2.1272

 PERCENT DISCREPANCY =           0.00     PERCENT DISCREPANCY =          -0.00




         TIME SUMMARY AT END OF TIME STEP    1 IN STRESS PERIOD  769
                          TIME STEP LENGTH =    1.00000    
                        STRESS PERIOD TIME =    1.00000    
                     TOTAL SIMULATION TIME =    769.000    

end timestep


start timestep kper="770" kstp="1" mode="normal"


 OUTPUT CONTROL FOR STRESS PERIOD 770 IS REPEATED USING SETTINGS FROM A PREVIOUS STRESS PERIOD.


 STRESS PERIOD 770 IS TRANSIENT


 REUSING WELS FROM LAST STRESS PERIOD

 REUSING DRNS FROM LAST STRESS PERIOD

 REUSING RCHS FROM LAST STRESS PERIOD


  VOLUME BUDGET FOR ENTIRE MODEL AT END OF TIME STEP    1, STRESS PERIOD 770
  ---------------------------------------------------------------------------------------------------

     CUMULATIVE VOLUME      L**3       RATES FOR THIS TIME STEP      L**3/T          PACKAGE NAME    
     ------------------                 ------------------------                     ----------------

           IN:                                      IN:
           ---                                      ---
              STO-SS =           0.0000                STO-SS =           0.0000     STORAGE         
              STO-SY = 14219251219.7381                STO-SY =     8510122.6509     STORAGE         
                 WEL =           0.0000                   WEL =           0.0000     WEL_0           
                 DRN =           0.0000                   DRN =           0.0000     DRN_0           
                 RCH = 31086965453.8437                   RCH =    30310499.6752     RCH_0           

            TOTAL IN = 45306216673.5817              TOTAL IN =    38820622.3261

          OUT:                                     OUT:
          ----                                     ----
              STO-SS =           0.0000                STO-SS =           0.0000     STORAGE         
              STO-SY = 11263579509.3055                STO-SY =     8290925.9469     STORAGE         
                 WEL =  8282303960.8299                   WEL =     5880733.0626     WEL_0           
                 DRN = 25760323642.3970                   DRN =    24648943.6282     DRN_0           
                 RCH =           0.0000                   RCH =           0.0000     RCH_0           

           TOTAL OUT = 45306207112.5324             TOTAL OUT =    38820602.6377

            IN - OUT =        9561.0493              IN - OUT =          19.6884

 PERCENT DISCREPANCY =           0.00     PERCENT DISCREPANCY =           0.00




         TIME SUMMARY AT END OF TIME STEP    1 IN STRESS PERIOD  770
                          TIME STEP LENGTH =    1.00000    
                        STRESS PERIOD TIME =    1.00000    
                     TOTAL SIMULATION TIME =    770.000    

end timestep


start timestep kper="771" kstp="1" mode="normal"


 OUTPUT CONTROL FOR STRESS PERIOD 771 IS REPEATED USING SETTINGS FROM A PREVIOUS STRESS PERIOD.


 STRESS PERIOD 771 IS TRANSIENT


 REUSING WELS FROM LAST STRESS PERIOD

 REUSING DRNS FROM LAST STRESS PERIOD

 REUSING RCHS FROM LAST STRESS PERIOD


  VOLUME BUDGET FOR ENTIRE MODEL AT END OF TIME STEP    1, STRESS PERIOD 771
  ---------------------------------------------------------------------------------------------------

     CUMULATIVE VOLUME      L**3       RATES FOR THIS TIME STEP      L**3/T          PACKAGE NAME    
     ------------------                 ------------------------                     ----------------

           IN:                                      IN:
           ---                                      ---
              STO-SS =           0.0000                STO-SS =           0.0000     STORAGE         
              STO-SY = 14223068528.6641                STO-SY =     3817308.9260     STORAGE         
                 WEL =           0.0000                   WEL =           0.0000     WEL_0           
                 DRN =           0.0000                   DRN =           0.0000     DRN_0           
                 RCH = 31152677775.8536                   RCH =    65712322.0099     RCH_0           

            TOTAL IN = 45375746304.5176              TOTAL IN =    69529630.9359

          OUT:                                     OUT:
          ----                                     ----
              STO-SS =           0.0000                STO-SS =           0.0000     STORAGE         
              STO-SY = 11294853297.1002                STO-SY =    31273787.7947     STORAGE         
                 WEL =  8287351187.1839                   WEL =     5047226.3540     WEL_0           
                 DRN = 25793532258.6901                   DRN =    33208616.2931     DRN_0           
                 RCH =           0.0000                   RCH =           0.0000     RCH_0           

           TOTAL OUT = 45375736742.9742             TOTAL OUT =    69529630.4418

            IN - OUT =        9561.5434              IN - OUT =           0.4941

 PERCENT DISCREPANCY =           0.00     PERCENT DISCREPANCY =           0.00




         TIME SUMMARY AT END OF TIME STEP    1 IN STRESS PERIOD  771
                          TIME STEP LENGTH =    1.00000    
                        STRESS PERIOD TIME =    1.00000    
                     TOTAL SIMULATION TIME =    771.000    

end timestep


start timestep kper="772" kstp="1" mode="normal"


 OUTPUT CONTROL FOR STRESS PERIOD 772 IS REPEATED USING SETTINGS FROM A PREVIOUS STRESS PERIOD.


 STRESS PERIOD 772 IS TRANSIENT


 REUSING WELS FROM LAST STRESS PERIOD

 REUSING DRNS FROM LAST STRESS PERIOD

 REUSING RCHS FROM LAST STRESS PERIOD


  VOLUME BUDGET FOR ENTIRE MODEL AT END OF TIME STEP    1, STRESS PERIOD 772
  ---------------------------------------------------------------------------------------------------

     CUMULATIVE VOLUME      L**3       RATES FOR THIS TIME STEP      L**3/T          PACKAGE NAME    
     ------------------                 ------------------------                     ----------------

           IN:                                      IN:
           ---                                      ---
              STO-SS =           0.0000                STO-SS =           0.0000     STORAGE         
              STO-SY = 14225401136.6660                STO-SY =     2332608.0020     STORAGE         
                 WEL =           0.0000                   WEL =           0.0000     WEL_0           
                 DRN =           0.0000                   DRN =           0.0000     DRN_0           
                 RCH = 31295404165.4232                   RCH =   142726389.5696     RCH_0           

            TOTAL IN = 45520805302.0892              TOTAL IN =   145058997.5716

          OUT:                                     OUT:
          ----                                     ----
              STO-SS =           0.0000                STO-SS =           0.0000     STORAGE         
              STO-SY = 11397570984.1210                STO-SY =   102717687.0208     STORAGE         
                 WEL =  8291469826.9725                   WEL =     4118639.7886     WEL_0           
                 DRN = 25831754928.7019                   DRN =    38222670.0119     DRN_0           
                 RCH =           0.0000                   RCH =           0.0000     RCH_0           

           TOTAL OUT = 45520795739.7954             TOTAL OUT =   145058996.8212

            IN - OUT =        9562.2939              IN - OUT =           0.7504

 PERCENT DISCREPANCY =           0.00     PERCENT DISCREPANCY =           0.00




         TIME SUMMARY AT END OF TIME STEP    1 IN STRESS PERIOD  772
                          TIME STEP LENGTH =    1.00000    
                        STRESS PERIOD TIME =    1.00000    
                     TOTAL SIMULATION TIME =    772.000    

end timestep


start timestep kper="773" kstp="1" mode="normal"


 OUTPUT CONTROL FOR STRESS PERIOD 773 IS REPEATED USING SETTINGS FROM A PREVIOUS STRESS PERIOD.


 STRESS PERIOD 773 IS TRANSIENT


 REUSING WELS FROM LAST STRESS PERIOD

 REUSING DRNS FROM LAST STRESS PERIOD

 REUSING RCHS FROM LAST STRESS PERIOD


  VOLUME BUDGET FOR ENTIRE MODEL AT END OF TIME STEP    1, STRESS PERIOD 773
  ---------------------------------------------------------------------------------------------------

     CUMULATIVE VOLUME      L**3       RATES FOR THIS TIME STEP      L**3/T          PACKAGE NAME    
     ------------------                 ------------------------                     ----------------

           IN:                                      IN:
           ---                                      ---
              STO-SS =           0.0000                STO-SS =           0.0000     STORAGE         
              STO-SY = 14227110696.0821                STO-SY =     1709559.4161     STORAGE         
                 WEL =           0.0000                   WEL =           0.0000     WEL_0           
                 DRN =           0.0000                   DRN =           0.0000     DRN_0           
                 RCH = 31614820344.3869                   RCH =   319416178.9637     RCH_0           

            TOTAL IN = 45841931040.4690              TOTAL IN =   321125738.3798

          OUT:                                     OUT:
          ----                                     ----
              STO-SS =           0.0000                STO-SS =           0.0000     STORAGE         
              STO-SY = 11638684779.6453                STO-SY =   241113795.5244     STORAGE         
                 WEL =  8294686195.9324                   WEL =     3216368.9599     WEL_0           
                 DRN = 25908550502.6764                   DRN =    76795573.9745     DRN_0           
                 RCH =           0.0000                   RCH =           0.0000     RCH_0           

           TOTAL OUT = 45841921478.2541             TOTAL OUT =   321125738.4588

            IN - OUT =        9562.2149              IN - OUT =      -7.8988E-02

 PERCENT DISCREPANCY =           0.00     PERCENT DISCREPANCY =          -0.00




         TIME SUMMARY AT END OF TIME STEP    1 IN STRESS PERIOD  773
                          TIME STEP LENGTH =    1.00000    
                        STRESS PERIOD TIME =    1.00000    
                     TOTAL SIMULATION TIME =    773.000    

end timestep


start timestep kper="774" kstp="1" mode="normal"


 OUTPUT CONTROL FOR STRESS PERIOD 774 IS REPEATED USING SETTINGS FROM A PREVIOUS STRESS PERIOD.


 STRESS PERIOD 774 IS TRANSIENT


 REUSING WELS FROM LAST STRESS PERIOD

 REUSING DRNS FROM LAST STRESS PERIOD

 REUSING RCHS FROM LAST STRESS PERIOD


  VOLUME BUDGET FOR ENTIRE MODEL AT END OF TIME STEP    1, STRESS PERIOD 774
  ---------------------------------------------------------------------------------------------------

     CUMULATIVE VOLUME      L**3       RATES FOR THIS TIME STEP      L**3/T          PACKAGE NAME    
     ------------------                 ------------------------                     ----------------

           IN:                                      IN:
           ---                                      ---
              STO-SS =           0.0000                STO-SS =           0.0000     STORAGE         
              STO-SY = 14231135215.5963                STO-SY =     4024519.5142     STORAGE         
                 WEL =           0.0000                   WEL =           0.0000     WEL_0           
                 DRN =           0.0000                   DRN =           0.0000     DRN_0           
                 RCH = 31755354049.8740                   RCH =   140533705.4871     RCH_0           

            TOTAL IN = 45986489265.4703              TOTAL IN =   144558225.0014

          OUT:                                     OUT:
          ----                                     ----
              STO-SS =           0.0000                STO-SS =           0.0000     STORAGE         
              STO-SY = 11736695855.4009                STO-SY =    98011075.7555     STORAGE         
                 WEL =  8298161979.8693                   WEL =     3475783.9370     WEL_0           
                 DRN = 25951621865.8896                   DRN =    43071363.2132     DRN_0           
                 RCH =           0.0000                   RCH =           0.0000     RCH_0           

           TOTAL OUT = 45986479701.1598             TOTAL OUT =   144558222.9057

            IN - OUT =        9564.3105              IN - OUT =           2.0957

 PERCENT DISCREPANCY =           0.00     PERCENT DISCREPANCY =           0.00




         TIME SUMMARY AT END OF TIME STEP    1 IN STRESS PERIOD  774
                          TIME STEP LENGTH =    1.00000    
                        STRESS PERIOD TIME =    1.00000    
                     TOTAL SIMULATION TIME =    774.000    

end timestep


start timestep kper="775" kstp="1" mode="normal"


 OUTPUT CONTROL FOR STRESS PERIOD 775 IS REPEATED USING SETTINGS FROM A PREVIOUS STRESS PERIOD.


 STRESS PERIOD 775 IS TRANSIENT


 REUSING WELS FROM LAST STRESS PERIOD

 REUSING DRNS FROM LAST STRESS PERIOD

 REUSING RCHS FROM LAST STRESS PERIOD


  VOLUME BUDGET FOR ENTIRE MODEL AT END OF TIME STEP    1, STRESS PERIOD 775
  ---------------------------------------------------------------------------------------------------

     CUMULATIVE VOLUME      L**3       RATES FOR THIS TIME STEP      L**3/T          PACKAGE NAME    
     ------------------                 ------------------------                     ----------------

           IN:                                      IN:
           ---                                      ---
              STO-SS =           0.0000                STO-SS =           0.0000     STORAGE         
              STO-SY = 14241890307.7994                STO-SY =    10755092.2031     STORAGE         
                 WEL =           0.0000                   WEL =           0.0000     WEL_0           
                 DRN =           0.0000                   DRN =           0.0000     DRN_0           
                 RCH = 31814905379.0676                   RCH =    59551329.1935     RCH_0           

            TOTAL IN = 46056795686.8670              TOTAL IN =    70306421.3966

          OUT:                                     OUT:
          ----                                     ----
              STO-SS =           0.0000                STO-SS =           0.0000     STORAGE         
              STO-SY = 11767093139.3892                STO-SY =    30397283.9884     STORAGE         
                 WEL =  8302531443.1130                   WEL =     4369463.2437     WEL_0           
                 DRN = 25987161520.8479                   DRN =    35539654.9583     DRN_0           
                 RCH =           0.0000                   RCH =           0.0000     RCH_0           

           TOTAL OUT = 46056786103.3501             TOTAL OUT =    70306402.1904

            IN - OUT =        9583.5168              IN - OUT =          19.2063

 PERCENT DISCREPANCY =           0.00     PERCENT DISCREPANCY =           0.00




         TIME SUMMARY AT END OF TIME STEP    1 IN STRESS PERIOD  775
                          TIME STEP LENGTH =    1.00000    
                        STRESS PERIOD TIME =    1.00000    
                     TOTAL SIMULATION TIME =    775.000    

end timestep


start timestep kper="776" kstp="1" mode="normal"


 OUTPUT CONTROL FOR STRESS PERIOD 776 IS REPEATED USING SETTINGS FROM A PREVIOUS STRESS PERIOD.


 STRESS PERIOD 776 IS TRANSIENT


 REUSING WELS FROM LAST STRESS PERIOD

 REUSING DRNS FROM LAST STRESS PERIOD

 REUSING RCHS FROM LAST STRESS PERIOD


  VOLUME BUDGET FOR ENTIRE MODEL AT END OF TIME STEP    1, STRESS PERIOD 776
  ---------------------------------------------------------------------------------------------------

     CUMULATIVE VOLUME      L**3       RATES FOR THIS TIME STEP      L**3/T          PACKAGE NAME    
     ------------------                 ------------------------                     ----------------

           IN:                                      IN:
           ---                                      ---
              STO-SS =           0.0000                STO-SS =           0.0000     STORAGE         
              STO-SY = 14249025982.1952                STO-SY =     7135674.3958     STORAGE         
                 WEL =           0.0000                   WEL =           0.0000     WEL_0           
                 DRN =           0.0000                   DRN =           0.0000     DRN_0           
                 RCH = 31861210725.7765                   RCH =    46305346.7089     RCH_0           

            TOTAL IN = 46110236707.9717              TOTAL IN =    53441021.1048

          OUT:                                     OUT:
          ----                                     ----
              STO-SS =           0.0000                STO-SS =           0.0000     STORAGE         
              STO-SY = 11782252163.3839                STO-SY =    15159023.9947     STORAGE         
                 WEL =  8306540197.1448                   WEL =     4008754.0318     WEL_0           
                 DRN = 26021434761.0915                   DRN =    34273240.2436     DRN_0           
                 RCH =           0.0000                   RCH =           0.0000     RCH_0           

           TOTAL OUT = 46110227121.6203             TOTAL OUT =    53441018.2701

            IN - OUT =        9586.3514              IN - OUT =           2.8346

 PERCENT DISCREPANCY =           0.00     PERCENT DISCREPANCY =           0.00




         TIME SUMMARY AT END OF TIME STEP    1 IN STRESS PERIOD  776
                          TIME STEP LENGTH =    1.00000    
                        STRESS PERIOD TIME =    1.00000    
                     TOTAL SIMULATION TIME =    776.000    

end timestep


start timestep kper="777" kstp="1" mode="normal"


 OUTPUT CONTROL FOR STRESS PERIOD 777 IS REPEATED USING SETTINGS FROM A PREVIOUS STRESS PERIOD.


 STRESS PERIOD 777 IS TRANSIENT


 REUSING WELS FROM LAST STRESS PERIOD

 REUSING DRNS FROM LAST STRESS PERIOD

 REUSING RCHS FROM LAST STRESS PERIOD


  VOLUME BUDGET FOR ENTIRE MODEL AT END OF TIME STEP    1, STRESS PERIOD 777
  ---------------------------------------------------------------------------------------------------

     CUMULATIVE VOLUME      L**3       RATES FOR THIS TIME STEP      L**3/T          PACKAGE NAME    
     ------------------                 ------------------------                     ----------------

           IN:                                      IN:
           ---                                      ---
              STO-SS =           0.0000                STO-SS =           0.0000     STORAGE         
              STO-SY = 14251082845.0312                STO-SY =     2056862.8360     STORAGE         
                 WEL =           0.0000                   WEL =           0.0000     WEL_0           
                 DRN =           0.0000                   DRN =           0.0000     DRN_0           
                 RCH = 32010674005.3226                   RCH =   149463279.5461     RCH_0           

            TOTAL IN = 46261756850.3537              TOTAL IN =   151520142.3820

          OUT:                                     OUT:
          ----                                     ----
              STO-SS =           0.0000                STO-SS =           0.0000     STORAGE         
              STO-SY = 11876581183.0607                STO-SY =    94329019.6768     STORAGE         
                 WEL =  8309918130.4992                   WEL =     3377933.3544     WEL_0           
                 DRN = 26075247951.5502                   DRN =    53813190.4587     DRN_0           
                 RCH =           0.0000                   RCH =           0.0000     RCH_0           

           TOTAL OUT = 46261747265.1101             TOTAL OUT =   151520143.4898

            IN - OUT =        9585.2436              IN - OUT =          -1.1078

 PERCENT DISCREPANCY =           0.00     PERCENT DISCREPANCY =          -0.00




         TIME SUMMARY AT END OF TIME STEP    1 IN STRESS PERIOD  777
                          TIME STEP LENGTH =    1.00000    
                        STRESS PERIOD TIME =    1.00000    
                     TOTAL SIMULATION TIME =    777.000    

end timestep


start timestep kper="778" kstp="1" mode="normal"


 OUTPUT CONTROL FOR STRESS PERIOD 778 IS REPEATED USING SETTINGS FROM A PREVIOUS STRESS PERIOD.


 STRESS PERIOD 778 IS TRANSIENT


 REUSING WELS FROM LAST STRESS PERIOD

 REUSING DRNS FROM LAST STRESS PERIOD

 REUSING RCHS FROM LAST STRESS PERIOD


  VOLUME BUDGET FOR ENTIRE MODEL AT END OF TIME STEP    1, STRESS PERIOD 778
  ---------------------------------------------------------------------------------------------------

     CUMULATIVE VOLUME      L**3       RATES FOR THIS TIME STEP      L**3/T          PACKAGE NAME    
     ------------------                 ------------------------                     ----------------

           IN:                                      IN:
           ---                                      ---
              STO-SS =           0.0000                STO-SS =           0.0000     STORAGE         
              STO-SY = 14255003865.9824                STO-SY =     3921020.9512     STORAGE         
                 WEL =           0.0000                   WEL =           0.0000     WEL_0           
                 DRN =           0.0000                   DRN =           0.0000     DRN_0           
                 RCH = 32161298815.7739                   RCH =   150624810.4513     RCH_0           

            TOTAL IN = 46416302681.7563              TOTAL IN =   154545831.4025

          OUT:                                     OUT:
          ----                                     ----
              STO-SS =           0.0000                STO-SS =           0.0000     STORAGE         
              STO-SY = 11973757576.2740                STO-SY =    97176393.2133     STORAGE         
                 WEL =  8313142027.0185                   WEL =     3223896.5193     WEL_0           
                 DRN = 26129393492.1138                   DRN =    54145540.5635     DRN_0           
                 RCH =           0.0000                   RCH =           0.0000     RCH_0           

           TOTAL OUT = 46416293095.4063             TOTAL OUT =   154545830.2962

            IN - OUT =        9586.3500              IN - OUT =           1.1064

 PERCENT DISCREPANCY =           0.00     PERCENT DISCREPANCY =           0.00




         TIME SUMMARY AT END OF TIME STEP    1 IN STRESS PERIOD  778
                          TIME STEP LENGTH =    1.00000    
                        STRESS PERIOD TIME =    1.00000    
                     TOTAL SIMULATION TIME =    778.000    

end timestep


start timestep kper="779" kstp="1" mode="normal"


 OUTPUT CONTROL FOR STRESS PERIOD 779 IS REPEATED USING SETTINGS FROM A PREVIOUS STRESS PERIOD.


 STRESS PERIOD 779 IS TRANSIENT


 REUSING WELS FROM LAST STRESS PERIOD

 REUSING DRNS FROM LAST STRESS PERIOD

 REUSING RCHS FROM LAST STRESS PERIOD


  VOLUME BUDGET FOR ENTIRE MODEL AT END OF TIME STEP    1, STRESS PERIOD 779
  ---------------------------------------------------------------------------------------------------

     CUMULATIVE VOLUME      L**3       RATES FOR THIS TIME STEP      L**3/T          PACKAGE NAME    
     ------------------                 ------------------------                     ----------------

           IN:                                      IN:
           ---                                      ---
              STO-SS =           0.0000                STO-SS =           0.0000     STORAGE         
              STO-SY = 14261033164.9906                STO-SY =     6029299.0083     STORAGE         
                 WEL =           0.0000                   WEL =           0.0000     WEL_0           
                 DRN =           0.0000                   DRN =           0.0000     DRN_0           
                 RCH = 32228607446.7224                   RCH =    67308630.9485     RCH_0           

            TOTAL IN = 46489640611.7130              TOTAL IN =    73337929.9568

          OUT:                                     OUT:
          ----                                     ----
              STO-SS =           0.0000                STO-SS =           0.0000     STORAGE         
              STO-SY = 12000191393.1702                STO-SY =    26433816.8962     STORAGE         
                 WEL =  8316742568.2750                   WEL =     3600541.2565     WEL_0           
                 DRN = 26172697060.1513                   DRN =    43303568.0375     DRN_0           
                 RCH =           0.0000                   RCH =           0.0000     RCH_0           

           TOTAL OUT = 46489631021.5965             TOTAL OUT =    73337926.1902

            IN - OUT =        9590.1165              IN - OUT =           3.7665

 PERCENT DISCREPANCY =           0.00     PERCENT DISCREPANCY =           0.00




         TIME SUMMARY AT END OF TIME STEP    1 IN STRESS PERIOD  779
                          TIME STEP LENGTH =    1.00000    
                        STRESS PERIOD TIME =    1.00000    
                     TOTAL SIMULATION TIME =    779.000    

end timestep


start timestep kper="780" kstp="1" mode="normal"


 OUTPUT CONTROL FOR STRESS PERIOD 780 IS REPEATED USING SETTINGS FROM A PREVIOUS STRESS PERIOD.


 STRESS PERIOD 780 IS TRANSIENT


 REUSING WELS FROM LAST STRESS PERIOD

 REUSING DRNS FROM LAST STRESS PERIOD

 REUSING RCHS FROM LAST STRESS PERIOD


  VOLUME BUDGET FOR ENTIRE MODEL AT END OF TIME STEP    1, STRESS PERIOD 780
  ---------------------------------------------------------------------------------------------------

     CUMULATIVE VOLUME      L**3       RATES FOR THIS TIME STEP      L**3/T          PACKAGE NAME    
     ------------------                 ------------------------                     ----------------

           IN:                                      IN:
           ---                                      ---
              STO-SS =           0.0000                STO-SS =           0.0000     STORAGE         
              STO-SY = 14263602467.6241                STO-SY =     2569302.6335     STORAGE         
                 WEL =           0.0000                   WEL =           0.0000     WEL_0           
                 DRN =           0.0000                   DRN =           0.0000     DRN_0           
                 RCH = 32541664649.2292                   RCH =   313057202.5069     RCH_0           

            TOTAL IN = 46805267116.8534              TOTAL IN =   315626505.1403

          OUT:                                     OUT:
          ----                                     ----
              STO-SS =           0.0000                STO-SS =           0.0000     STORAGE         
              STO-SY = 12225098622.7218                STO-SY =   224907229.5516     STORAGE         
                 WEL =  8319153023.3390                   WEL =     2410455.0640     WEL_0           
                 DRN = 26261005876.3982                   DRN =    88308816.2469     DRN_0           
                 RCH =           0.0000                   RCH =           0.0000     RCH_0           

           TOTAL OUT = 46805257522.4590             TOTAL OUT =   315626500.8625

            IN - OUT =        9594.3943              IN - OUT =           4.2778

 PERCENT DISCREPANCY =           0.00     PERCENT DISCREPANCY =           0.00




         TIME SUMMARY AT END OF TIME STEP    1 IN STRESS PERIOD  780
                          TIME STEP LENGTH =    1.00000    
                        STRESS PERIOD TIME =    1.00000    
                     TOTAL SIMULATION TIME =    780.000    

end timestep


start timestep kper="781" kstp="1" mode="normal"


 OUTPUT CONTROL FOR STRESS PERIOD 781 IS REPEATED USING SETTINGS FROM A PREVIOUS STRESS PERIOD.


 STRESS PERIOD 781 IS TRANSIENT


 REUSING WELS FROM LAST STRESS PERIOD

 REUSING DRNS FROM LAST STRESS PERIOD

 REUSING RCHS FROM LAST STRESS PERIOD


  VOLUME BUDGET FOR ENTIRE MODEL AT END OF TIME STEP    1, STRESS PERIOD 781
  ---------------------------------------------------------------------------------------------------

     CUMULATIVE VOLUME      L**3       RATES FOR THIS TIME STEP      L**3/T          PACKAGE NAME    
     ------------------                 ------------------------                     ----------------

           IN:                                      IN:
           ---                                      ---
              STO-SS =           0.0000                STO-SS =           0.0000     STORAGE         
              STO-SY = 14270209676.9734                STO-SY =     6607209.3493     STORAGE         
                 WEL =           0.0000                   WEL =           0.0000     WEL_0           
                 DRN =           0.0000                   DRN =           0.0000     DRN_0           
                 RCH = 32665268800.8041                   RCH =   123604151.5748     RCH_0           

            TOTAL IN = 46935478477.7775              TOTAL IN =   130211360.9241

          OUT:                                     OUT:
          ----                                     ----
              STO-SS =           0.0000                STO-SS =           0.0000     STORAGE         
              STO-SY = 12289475586.7443                STO-SY =    64376964.0225     STORAGE         
                 WEL =  8322119939.5802                   WEL =     2966916.2412     WEL_0           
                 DRN = 26323873357.0762                   DRN =    62867480.6779     DRN_0           
                 RCH =           0.0000                   RCH =           0.0000     RCH_0           

           TOTAL OUT = 46935468883.4007             TOTAL OUT =   130211360.9417

            IN - OUT =        9594.3768              IN - OUT =      -1.7559E-02

 PERCENT DISCREPANCY =           0.00     PERCENT DISCREPANCY =          -0.00




         TIME SUMMARY AT END OF TIME STEP    1 IN STRESS PERIOD  781
                          TIME STEP LENGTH =    1.00000    
                        STRESS PERIOD TIME =    1.00000    
                     TOTAL SIMULATION TIME =    781.000    

end timestep


start timestep kper="782" kstp="1" mode="normal"


 OUTPUT CONTROL FOR STRESS PERIOD 782 IS REPEATED USING SETTINGS FROM A PREVIOUS STRESS PERIOD.


 STRESS PERIOD 782 IS TRANSIENT


 REUSING WELS FROM LAST STRESS PERIOD

 REUSING DRNS FROM LAST STRESS PERIOD

 REUSING RCHS FROM LAST STRESS PERIOD


  VOLUME BUDGET FOR ENTIRE MODEL AT END OF TIME STEP    1, STRESS PERIOD 782
  ---------------------------------------------------------------------------------------------------

     CUMULATIVE VOLUME      L**3       RATES FOR THIS TIME STEP      L**3/T          PACKAGE NAME    
     ------------------                 ------------------------                     ----------------

           IN:                                      IN:
           ---                                      ---
              STO-SS =           0.0000                STO-SS =           0.0000     STORAGE         
              STO-SY = 14273891694.0761                STO-SY =     3682017.1027     STORAGE         
                 WEL =           0.0000                   WEL =           0.0000     WEL_0           
                 DRN =           0.0000                   DRN =           0.0000     DRN_0           
                 RCH = 32771185044.8017                   RCH =   105916243.9977     RCH_0           

            TOTAL IN = 47045076738.8778              TOTAL IN =   109598261.1003

          OUT:                                     OUT:
          ----                                     ----
              STO-SS =           0.0000                STO-SS =           0.0000     STORAGE         
              STO-SY = 12340913534.1644                STO-SY =    51437947.4200     STORAGE         
                 WEL =  8325241977.4975                   WEL =     3122037.9173     WEL_0           
                 DRN = 26378911615.6575                   DRN =    55038258.5813     DRN_0           
                 RCH =           0.0000                   RCH =           0.0000     RCH_0           

           TOTAL OUT = 47045067127.3194             TOTAL OUT =   109598243.9186

            IN - OUT =        9611.5584              IN - OUT =          17.1817

 PERCENT DISCREPANCY =           0.00     PERCENT DISCREPANCY =           0.00




         TIME SUMMARY AT END OF TIME STEP    1 IN STRESS PERIOD  782
                          TIME STEP LENGTH =    1.00000    
                        STRESS PERIOD TIME =    1.00000    
                     TOTAL SIMULATION TIME =    782.000    

end timestep


start timestep kper="783" kstp="1" mode="normal"


 OUTPUT CONTROL FOR STRESS PERIOD 783 IS REPEATED USING SETTINGS FROM A PREVIOUS STRESS PERIOD.


 STRESS PERIOD 783 IS TRANSIENT


 REUSING WELS FROM LAST STRESS PERIOD

 REUSING DRNS FROM LAST STRESS PERIOD

 REUSING RCHS FROM LAST STRESS PERIOD


  VOLUME BUDGET FOR ENTIRE MODEL AT END OF TIME STEP    1, STRESS PERIOD 783
  ---------------------------------------------------------------------------------------------------

     CUMULATIVE VOLUME      L**3       RATES FOR THIS TIME STEP      L**3/T          PACKAGE NAME    
     ------------------                 ------------------------                     ----------------

           IN:                                      IN:
           ---                                      ---
              STO-SS =           0.0000                STO-SS =           0.0000     STORAGE         
              STO-SY = 14278748748.4161                STO-SY =     4857054.3400     STORAGE         
                 WEL =           0.0000                   WEL =           0.0000     WEL_0           
                 DRN =           0.0000                   DRN =           0.0000     DRN_0           
                 RCH = 32969589853.9186                   RCH =   198404809.1169     RCH_0           

            TOTAL IN = 47248338602.3347              TOTAL IN =   203261863.4569

          OUT:                                     OUT:
          ----                                     ----
              STO-SS =           0.0000                STO-SS =           0.0000     STORAGE         
              STO-SY = 12466761172.3230                STO-SY =   125847638.1587     STORAGE         
                 WEL =  8328112912.8538                   WEL =     2870935.3563     WEL_0           
                 DRN = 26453454905.6497                   DRN =    74543289.9922     DRN_0           
                 RCH =           0.0000                   RCH =           0.0000     RCH_0           

           TOTAL OUT = 47248328990.8265             TOTAL OUT =   203261863.5072

            IN - OUT =        9611.5082              IN - OUT =      -5.0227E-02

 PERCENT DISCREPANCY =           0.00     PERCENT DISCREPANCY =          -0.00




         TIME SUMMARY AT END OF TIME STEP    1 IN STRESS PERIOD  783
                          TIME STEP LENGTH =    1.00000    
                        STRESS PERIOD TIME =    1.00000    
                     TOTAL SIMULATION TIME =    783.000    

end timestep


start timestep kper="784" kstp="1" mode="normal"


 OUTPUT CONTROL FOR STRESS PERIOD 784 IS REPEATED USING SETTINGS FROM A PREVIOUS STRESS PERIOD.


 STRESS PERIOD 784 IS TRANSIENT


 REUSING WELS FROM LAST STRESS PERIOD

 REUSING DRNS FROM LAST STRESS PERIOD

 REUSING RCHS FROM LAST STRESS PERIOD


  VOLUME BUDGET FOR ENTIRE MODEL AT END OF TIME STEP    1, STRESS PERIOD 784
  ---------------------------------------------------------------------------------------------------

     CUMULATIVE VOLUME      L**3       RATES FOR THIS TIME STEP      L**3/T          PACKAGE NAME    
     ------------------                 ------------------------                     ----------------

           IN:                                      IN:
           ---                                      ---
              STO-SS =           0.0000                STO-SS =           0.0000     STORAGE         
              STO-SY = 14282653395.5977                STO-SY =     3904647.1816     STORAGE         
                 WEL =           0.0000                   WEL =           0.0000     WEL_0           
                 DRN =           0.0000                   DRN =           0.0000     DRN_0           
                 RCH = 33503134022.3538                   RCH =   533544168.4351     RCH_0           

            TOTAL IN = 47785787417.9514              TOTAL IN =   537448815.6167

          OUT:                                     OUT:
          ----                                     ----
              STO-SS =           0.0000                STO-SS =           0.0000     STORAGE         
              STO-SY = 12829932068.8364                STO-SY =   363170896.5134     STORAGE         
                 WEL =  8330052688.8246                   WEL =     1939775.9708     WEL_0           
                 DRN = 26625793048.6653                   DRN =   172338143.0156     DRN_0           
                 RCH =           0.0000                   RCH =           0.0000     RCH_0           

           TOTAL OUT = 47785777806.3263             TOTAL OUT =   537448815.4998

            IN - OUT =        9611.6251              IN - OUT =           0.1170

 PERCENT DISCREPANCY =           0.00     PERCENT DISCREPANCY =           0.00




         TIME SUMMARY AT END OF TIME STEP    1 IN STRESS PERIOD  784
                          TIME STEP LENGTH =    1.00000    
                        STRESS PERIOD TIME =    1.00000    
                     TOTAL SIMULATION TIME =    784.000    

end timestep


start timestep kper="785" kstp="1" mode="normal"


 OUTPUT CONTROL FOR STRESS PERIOD 785 IS REPEATED USING SETTINGS FROM A PREVIOUS STRESS PERIOD.


 STRESS PERIOD 785 IS TRANSIENT


 REUSING WELS FROM LAST STRESS PERIOD

 REUSING DRNS FROM LAST STRESS PERIOD

 REUSING RCHS FROM LAST STRESS PERIOD


  VOLUME BUDGET FOR ENTIRE MODEL AT END OF TIME STEP    1, STRESS PERIOD 785
  ---------------------------------------------------------------------------------------------------

     CUMULATIVE VOLUME      L**3       RATES FOR THIS TIME STEP      L**3/T          PACKAGE NAME    
     ------------------                 ------------------------                     ----------------

           IN:                                      IN:
           ---                                      ---
              STO-SS =           0.0000                STO-SS =           0.0000     STORAGE         
              STO-SY = 14292855903.5251                STO-SY =    10202507.9275     STORAGE         
                 WEL =           0.0000                   WEL =           0.0000     WEL_0           
                 DRN =           0.0000                   DRN =           0.0000     DRN_0           
                 RCH = 33665194257.1465                   RCH =   162060234.7928     RCH_0           

            TOTAL IN = 47958050160.6717              TOTAL IN =   172262742.7202

          OUT:                                     OUT:
          ----                                     ----
              STO-SS =           0.0000                STO-SS =           0.0000     STORAGE         
              STO-SY = 12910027076.2608                STO-SY =    80095007.4244     STORAGE         
                 WEL =  8332318845.1209                   WEL =     2266156.2963     WEL_0           
                 DRN = 26715694571.9260                   DRN =    89901523.2606     DRN_0           
                 RCH =           0.0000                   RCH =           0.0000     RCH_0           

           TOTAL OUT = 47958040493.3076             TOTAL OUT =   172262686.9813

            IN - OUT =        9667.3640              IN - OUT =          55.7389

 PERCENT DISCREPANCY =           0.00     PERCENT DISCREPANCY =           0.00




         TIME SUMMARY AT END OF TIME STEP    1 IN STRESS PERIOD  785
                          TIME STEP LENGTH =    1.00000    
                        STRESS PERIOD TIME =    1.00000    
                     TOTAL SIMULATION TIME =    785.000    

end timestep


start timestep kper="786" kstp="1" mode="normal"


 OUTPUT CONTROL FOR STRESS PERIOD 786 IS REPEATED USING SETTINGS FROM A PREVIOUS STRESS PERIOD.


 STRESS PERIOD 786 IS TRANSIENT


 REUSING WELS FROM LAST STRESS PERIOD

 REUSING DRNS FROM LAST STRESS PERIOD

 REUSING RCHS FROM LAST STRESS PERIOD


  VOLUME BUDGET FOR ENTIRE MODEL AT END OF TIME STEP    1, STRESS PERIOD 786
  ---------------------------------------------------------------------------------------------------

     CUMULATIVE VOLUME      L**3       RATES FOR THIS TIME STEP      L**3/T          PACKAGE NAME    
     ------------------                 ------------------------                     ----------------

           IN:                                      IN:
           ---                                      ---
              STO-SS =           0.0000                STO-SS =           0.0000     STORAGE         
              STO-SY = 14300011706.6946                STO-SY =     7155803.1694     STORAGE         
                 WEL =           0.0000                   WEL =           0.0000     WEL_0           
                 DRN =           0.0000                   DRN =           0.0000     DRN_0           
                 RCH = 33774718361.6599                   RCH =   109524104.5134     RCH_0           

            TOTAL IN = 48074730068.3545              TOTAL IN =   116679907.6828

          OUT:                                     OUT:
          ----                                     ----
              STO-SS =           0.0000                STO-SS =           0.0000     STORAGE         
              STO-SY = 12950663991.1902                STO-SY =    40636914.9294     STORAGE         
                 WEL =  8334985983.5408                   WEL =     2667138.4199     WEL_0           
                 DRN = 26789070414.9494                   DRN =    73375843.0234     DRN_0           
                 RCH =           0.0000                   RCH =           0.0000     RCH_0           

           TOTAL OUT = 48074720389.6804             TOTAL OUT =   116679896.3728

            IN - OUT =        9678.6741              IN - OUT =          11.3100

 PERCENT DISCREPANCY =           0.00     PERCENT DISCREPANCY =           0.00




         TIME SUMMARY AT END OF TIME STEP    1 IN STRESS PERIOD  786
                          TIME STEP LENGTH =    1.00000    
                        STRESS PERIOD TIME =    1.00000    
                     TOTAL SIMULATION TIME =    786.000    

end timestep


start timestep kper="787" kstp="1" mode="normal"


 OUTPUT CONTROL FOR STRESS PERIOD 787 IS REPEATED USING SETTINGS FROM A PREVIOUS STRESS PERIOD.


 STRESS PERIOD 787 IS TRANSIENT


 REUSING WELS FROM LAST STRESS PERIOD

 REUSING DRNS FROM LAST STRESS PERIOD

 REUSING RCHS FROM LAST STRESS PERIOD


  VOLUME BUDGET FOR ENTIRE MODEL AT END OF TIME STEP    1, STRESS PERIOD 787
  ---------------------------------------------------------------------------------------------------

     CUMULATIVE VOLUME      L**3       RATES FOR THIS TIME STEP      L**3/T          PACKAGE NAME    
     ------------------                 ------------------------                     ----------------

           IN:                                      IN:
           ---                                      ---
              STO-SS =           0.0000                STO-SS =           0.0000     STORAGE         
              STO-SY = 14308854052.5049                STO-SY =     8842345.8103     STORAGE         
                 WEL =           0.0000                   WEL =           0.0000     WEL_0           
                 DRN =           0.0000                   DRN =           0.0000     DRN_0           
                 RCH = 33879073310.3001                   RCH =   104354948.6402     RCH_0           

            TOTAL IN = 48187927362.8050              TOTAL IN =   113197294.4505

          OUT:                                     OUT:
          ----                                     ----
              STO-SS =           0.0000                STO-SS =           0.0000     STORAGE         
              STO-SY = 12989057646.1274                STO-SY =    38393654.9372     STORAGE         
                 WEL =  8337935704.0007                   WEL =     2949720.4599     WEL_0           
                 DRN = 26860924302.6207                   DRN =    71853887.6713     DRN_0           
                 RCH =           0.0000                   RCH =           0.0000     RCH_0           

           TOTAL OUT = 48187917652.7487             TOTAL OUT =   113197263.0683

            IN - OUT =        9710.0562              IN - OUT =          31.3822

 PERCENT DISCREPANCY =           0.00     PERCENT DISCREPANCY =           0.00




         TIME SUMMARY AT END OF TIME STEP    1 IN STRESS PERIOD  787
                          TIME STEP LENGTH =    1.00000    
                        STRESS PERIOD TIME =    1.00000    
                     TOTAL SIMULATION TIME =    787.000    

end timestep


start timestep kper="788" kstp="1" mode="normal"


 OUTPUT CONTROL FOR STRESS PERIOD 788 IS REPEATED USING SETTINGS FROM A PREVIOUS STRESS PERIOD.


 STRESS PERIOD 788 IS TRANSIENT


 REUSING WELS FROM LAST STRESS PERIOD

 REUSING DRNS FROM LAST STRESS PERIOD

 REUSING RCHS FROM LAST STRESS PERIOD


  VOLUME BUDGET FOR ENTIRE MODEL AT END OF TIME STEP    1, STRESS PERIOD 788
  ---------------------------------------------------------------------------------------------------

     CUMULATIVE VOLUME      L**3       RATES FOR THIS TIME STEP      L**3/T          PACKAGE NAME    
     ------------------                 ------------------------                     ----------------

           IN:                                      IN:
           ---                                      ---
              STO-SS =           0.0000                STO-SS =           0.0000     STORAGE         
              STO-SY = 14317312034.3414                STO-SY =     8457981.8365     STORAGE         
                 WEL =           0.0000                   WEL =           0.0000     WEL_0           
                 DRN =           0.0000                   DRN =           0.0000     DRN_0           
                 RCH = 33989730450.9356                   RCH =   110657140.6355     RCH_0           

            TOTAL IN = 48307042485.2770              TOTAL IN =   119115122.4721

          OUT:                                     OUT:
          ----                                     ----
              STO-SS =           0.0000                STO-SS =           0.0000     STORAGE         
              STO-SY = 13030336015.0444                STO-SY =    41278368.9170     STORAGE         
                 WEL =  8341046396.4267                   WEL =     3110692.4260     WEL_0           
                 DRN = 26935650364.3423                   DRN =    74726061.7216     DRN_0           
                 RCH =           0.0000                   RCH =           0.0000     RCH_0           

           TOTAL OUT = 48307032775.8134             TOTAL OUT =   119115123.0646

            IN - OUT =        9709.4637              IN - OUT =          -0.5926

 PERCENT DISCREPANCY =           0.00     PERCENT DISCREPANCY =          -0.00




         TIME SUMMARY AT END OF TIME STEP    1 IN STRESS PERIOD  788
                          TIME STEP LENGTH =    1.00000    
                        STRESS PERIOD TIME =    1.00000    
                     TOTAL SIMULATION TIME =    788.000    

end timestep


start timestep kper="789" kstp="1" mode="normal"


 OUTPUT CONTROL FOR STRESS PERIOD 789 IS REPEATED USING SETTINGS FROM A PREVIOUS STRESS PERIOD.


 STRESS PERIOD 789 IS TRANSIENT


 REUSING WELS FROM LAST STRESS PERIOD

 REUSING DRNS FROM LAST STRESS PERIOD

 REUSING RCHS FROM LAST STRESS PERIOD


  VOLUME BUDGET FOR ENTIRE MODEL AT END OF TIME STEP    1, STRESS PERIOD 789
  ---------------------------------------------------------------------------------------------------

     CUMULATIVE VOLUME      L**3       RATES FOR THIS TIME STEP      L**3/T          PACKAGE NAME    
     ------------------                 ------------------------                     ----------------

           IN:                                      IN:
           ---                                      ---
              STO-SS =           0.0000                STO-SS =           0.0000     STORAGE         
              STO-SY = 14327475161.4546                STO-SY =    10163127.1131     STORAGE         
                 WEL =           0.0000                   WEL =           0.0000     WEL_0           
                 DRN =           0.0000                   DRN =           0.0000     DRN_0           
                 RCH = 34089695815.0213                   RCH =    99965364.0857     RCH_0           

            TOTAL IN = 48417170976.4759              TOTAL IN =   110128491.1988

          OUT:                                     OUT:
          ----                                     ----
              STO-SS =           0.0000                STO-SS =           0.0000     STORAGE         
              STO-SY = 13065923530.8556                STO-SY =    35587515.8113     STORAGE         
                 WEL =  8344408852.8790                   WEL =     3362456.4523     WEL_0           
                 DRN = 27006828870.6590                   DRN =    71178506.3167     DRN_0           
                 RCH =           0.0000                   RCH =           0.0000     RCH_0           

           TOTAL OUT = 48417161254.3936             TOTAL OUT =   110128478.5803

            IN - OUT =        9722.0822              IN - OUT =          12.6185

 PERCENT DISCREPANCY =           0.00     PERCENT DISCREPANCY =           0.00




         TIME SUMMARY AT END OF TIME STEP    1 IN STRESS PERIOD  789
                          TIME STEP LENGTH =    1.00000    
                        STRESS PERIOD TIME =    1.00000    
                     TOTAL SIMULATION TIME =    789.000    

end timestep


start timestep kper="790" kstp="1" mode="normal"


 OUTPUT CONTROL FOR STRESS PERIOD 790 IS REPEATED USING SETTINGS FROM A PREVIOUS STRESS PERIOD.


 STRESS PERIOD 790 IS TRANSIENT


 REUSING WELS FROM LAST STRESS PERIOD

 REUSING DRNS FROM LAST STRESS PERIOD

 REUSING RCHS FROM LAST STRESS PERIOD


  VOLUME BUDGET FOR ENTIRE MODEL AT END OF TIME STEP    1, STRESS PERIOD 790
  ---------------------------------------------------------------------------------------------------

     CUMULATIVE VOLUME      L**3       RATES FOR THIS TIME STEP      L**3/T          PACKAGE NAME    
     ------------------                 ------------------------                     ----------------

           IN:                                      IN:
           ---                                      ---
              STO-SS =           0.0000                STO-SS =           0.0000     STORAGE         
              STO-SY = 14342947756.3556                STO-SY =    15472594.9011     STORAGE         
                 WEL =           0.0000                   WEL =           0.0000     WEL_0           
                 DRN =           0.0000                   DRN =           0.0000     DRN_0           
                 RCH = 34151526073.7039                   RCH =    61830258.6826     RCH_0           

            TOTAL IN = 48494473830.0595              TOTAL IN =    77302853.5837

          OUT:                                     OUT:
          ----                                     ----
              STO-SS =           0.0000                STO-SS =           0.0000     STORAGE         
              STO-SY = 13080650840.1360                STO-SY =    14727309.2804     STORAGE         
                 WEL =  8348608121.9345                   WEL =     4199269.0555     WEL_0           
                 DRN = 27065205129.3821                   DRN =    58376258.7231     DRN_0           
                 RCH =           0.0000                   RCH =           0.0000     RCH_0           

           TOTAL OUT = 48494464091.4526             TOTAL OUT =    77302837.0590

            IN - OUT =        9738.6069              IN - OUT =          16.5247

 PERCENT DISCREPANCY =           0.00     PERCENT DISCREPANCY =           0.00




         TIME SUMMARY AT END OF TIME STEP    1 IN STRESS PERIOD  790
                          TIME STEP LENGTH =    1.00000    
                        STRESS PERIOD TIME =    1.00000    
                     TOTAL SIMULATION TIME =    790.000    

end timestep


start timestep kper="791" kstp="1" mode="normal"


 OUTPUT CONTROL FOR STRESS PERIOD 791 IS REPEATED USING SETTINGS FROM A PREVIOUS STRESS PERIOD.


 STRESS PERIOD 791 IS TRANSIENT


 REUSING WELS FROM LAST STRESS PERIOD

 REUSING DRNS FROM LAST STRESS PERIOD

 REUSING RCHS FROM LAST STRESS PERIOD


  VOLUME BUDGET FOR ENTIRE MODEL AT END OF TIME STEP    1, STRESS PERIOD 791
  ---------------------------------------------------------------------------------------------------

     CUMULATIVE VOLUME      L**3       RATES FOR THIS TIME STEP      L**3/T          PACKAGE NAME    
     ------------------                 ------------------------                     ----------------

           IN:                                      IN:
           ---                                      ---
              STO-SS =           0.0000                STO-SS =           0.0000     STORAGE         
              STO-SY = 14351884143.1458                STO-SY =     8936386.7901     STORAGE         
                 WEL =           0.0000                   WEL =           0.0000     WEL_0           
                 DRN =           0.0000                   DRN =           0.0000     DRN_0           
                 RCH = 34233029939.0236                   RCH =    81503865.3197     RCH_0           

            TOTAL IN = 48584914082.1694              TOTAL IN =    90440252.1098

          OUT:                                     OUT:
          ----                                     ----
              STO-SS =           0.0000                STO-SS =           0.0000     STORAGE         
              STO-SY = 13100882801.7640                STO-SY =    20231961.6280     STORAGE         
                 WEL =  8352579858.0263                   WEL =     3971736.0918     WEL_0           
                 DRN = 27131441684.8488                   DRN =    66236555.4667     DRN_0           
                 RCH =           0.0000                   RCH =           0.0000     RCH_0           

           TOTAL OUT = 48584904344.6390             TOTAL OUT =    90440253.1864

            IN - OUT =        9737.5303              IN - OUT =          -1.0766

 PERCENT DISCREPANCY =           0.00     PERCENT DISCREPANCY =          -0.00




         TIME SUMMARY AT END OF TIME STEP    1 IN STRESS PERIOD  791
                          TIME STEP LENGTH =    1.00000    
                        STRESS PERIOD TIME =    1.00000    
                     TOTAL SIMULATION TIME =    791.000    

end timestep


start timestep kper="792" kstp="1" mode="normal"


 OUTPUT CONTROL FOR STRESS PERIOD 792 IS REPEATED USING SETTINGS FROM A PREVIOUS STRESS PERIOD.


 STRESS PERIOD 792 IS TRANSIENT


 REUSING WELS FROM LAST STRESS PERIOD

 REUSING DRNS FROM LAST STRESS PERIOD

 REUSING RCHS FROM LAST STRESS PERIOD


  VOLUME BUDGET FOR ENTIRE MODEL AT END OF TIME STEP    1, STRESS PERIOD 792
  ---------------------------------------------------------------------------------------------------

     CUMULATIVE VOLUME      L**3       RATES FOR THIS TIME STEP      L**3/T          PACKAGE NAME    
     ------------------                 ------------------------                     ----------------

           IN:                                      IN:
           ---                                      ---
              STO-SS =           0.0000                STO-SS =           0.0000     STORAGE         
              STO-SY = 14357686101.2086                STO-SY =     5801958.0628     STORAGE         
                 WEL =           0.0000                   WEL =           0.0000     WEL_0           
                 DRN =           0.0000                   DRN =           0.0000     DRN_0           
                 RCH = 34555638463.7647                   RCH =   322608524.7410     RCH_0           

            TOTAL IN = 48913324564.9733              TOTAL IN =   328410482.8039

          OUT:                                     OUT:
          ----                                     ----
              STO-SS =           0.0000                STO-SS =           0.0000     STORAGE         
              STO-SY = 13297289482.0001                STO-SY =   196406680.2362     STORAGE         
                 WEL =  8355142956.4551                   WEL =     2563098.4288     WEL_0           
                 DRN = 27260882379.6021                   DRN =   129440694.7533     DRN_0           
                 RCH =           0.0000                   RCH =           0.0000     RCH_0           

           TOTAL OUT = 48913314818.0573             TOTAL OUT =   328410473.4183

            IN - OUT =        9746.9159              IN - OUT =           9.3856

 PERCENT DISCREPANCY =           0.00     PERCENT DISCREPANCY =           0.00




         TIME SUMMARY AT END OF TIME STEP    1 IN STRESS PERIOD  792
                          TIME STEP LENGTH =    1.00000    
                        STRESS PERIOD TIME =    1.00000    
                     TOTAL SIMULATION TIME =    792.000    

end timestep


start timestep kper="793" kstp="1" mode="normal"


 OUTPUT CONTROL FOR STRESS PERIOD 793 IS REPEATED USING SETTINGS FROM A PREVIOUS STRESS PERIOD.


 STRESS PERIOD 793 IS TRANSIENT


 REUSING WELS FROM LAST STRESS PERIOD

 REUSING DRNS FROM LAST STRESS PERIOD

 REUSING RCHS FROM LAST STRESS PERIOD


  VOLUME BUDGET FOR ENTIRE MODEL AT END OF TIME STEP    1, STRESS PERIOD 793
  ---------------------------------------------------------------------------------------------------

     CUMULATIVE VOLUME      L**3       RATES FOR THIS TIME STEP      L**3/T          PACKAGE NAME    
     ------------------                 ------------------------                     ----------------

           IN:                                      IN:
           ---                                      ---
              STO-SS =           0.0000                STO-SS =           0.0000     STORAGE         
              STO-SY = 14367116475.4885                STO-SY =     9430374.2799     STORAGE         
                 WEL =           0.0000                   WEL =           0.0000     WEL_0           
                 DRN =           0.0000                   DRN =           0.0000     DRN_0           
                 RCH = 34889198343.7397                   RCH =   333559879.9751     RCH_0           

            TOTAL IN = 49256314819.2282              TOTAL IN =   342990254.2550

          OUT:                                     OUT:
          ----                                     ----
              STO-SS =           0.0000                STO-SS =           0.0000     STORAGE         
              STO-SY = 13491201210.3271                STO-SY =   193911728.3269     STORAGE         
                 WEL =  8357464294.7457                   WEL =     2321338.2906     WEL_0           
                 DRN = 27407639544.9375                   DRN =   146757165.3353     DRN_0           
                 RCH =           0.0000                   RCH =           0.0000     RCH_0           

           TOTAL OUT = 49256305050.0102             TOTAL OUT =   342990231.9528

            IN - OUT =        9769.2181              IN - OUT =          22.3021

 PERCENT DISCREPANCY =           0.00     PERCENT DISCREPANCY =           0.00




         TIME SUMMARY AT END OF TIME STEP    1 IN STRESS PERIOD  793
                          TIME STEP LENGTH =    1.00000    
                        STRESS PERIOD TIME =    1.00000    
                     TOTAL SIMULATION TIME =    793.000    

end timestep


start timestep kper="794" kstp="1" mode="normal"


 OUTPUT CONTROL FOR STRESS PERIOD 794 IS REPEATED USING SETTINGS FROM A PREVIOUS STRESS PERIOD.


 STRESS PERIOD 794 IS TRANSIENT


 REUSING WELS FROM LAST STRESS PERIOD

 REUSING DRNS FROM LAST STRESS PERIOD

 REUSING RCHS FROM LAST STRESS PERIOD


  VOLUME BUDGET FOR ENTIRE MODEL AT END OF TIME STEP    1, STRESS PERIOD 794
  ---------------------------------------------------------------------------------------------------

     CUMULATIVE VOLUME      L**3       RATES FOR THIS TIME STEP      L**3/T          PACKAGE NAME    
     ------------------                 ------------------------                     ----------------

           IN:                                      IN:
           ---                                      ---
              STO-SS =           0.0000                STO-SS =           0.0000     STORAGE         
              STO-SY = 14378870513.5080                STO-SY =    11754038.0195     STORAGE         
                 WEL =           0.0000                   WEL =           0.0000     WEL_0           
                 DRN =           0.0000                   DRN =           0.0000     DRN_0           
                 RCH = 35017458121.8777                   RCH =   128259778.1379     RCH_0           

            TOTAL IN = 49396328635.3856              TOTAL IN =   140013816.1574

          OUT:                                     OUT:
          ----                                     ----
              STO-SS =           0.0000                STO-SS =           0.0000     STORAGE         
              STO-SY = 13534297614.5909                STO-SY =    43096404.2639     STORAGE         
                 WEL =  8360117764.4096                   WEL =     2653469.6639     WEL_0           
                 DRN = 27501903539.8972                   DRN =    94263994.9598     DRN_0           
                 RCH =           0.0000                   RCH =           0.0000     RCH_0           

           TOTAL OUT = 49396318918.8977             TOTAL OUT =   140013868.8875

            IN - OUT =        9716.4879              IN - OUT =         -52.7301

 PERCENT DISCREPANCY =           0.00     PERCENT DISCREPANCY =          -0.00




         TIME SUMMARY AT END OF TIME STEP    1 IN STRESS PERIOD  794
                          TIME STEP LENGTH =    1.00000    
                        STRESS PERIOD TIME =    1.00000    
                     TOTAL SIMULATION TIME =    794.000    

end timestep


start timestep kper="795" kstp="1" mode="normal"


 OUTPUT CONTROL FOR STRESS PERIOD 795 IS REPEATED USING SETTINGS FROM A PREVIOUS STRESS PERIOD.


 STRESS PERIOD 795 IS TRANSIENT


 REUSING WELS FROM LAST STRESS PERIOD

 REUSING DRNS FROM LAST STRESS PERIOD

 REUSING RCHS FROM LAST STRESS PERIOD


  VOLUME BUDGET FOR ENTIRE MODEL AT END OF TIME STEP    1, STRESS PERIOD 795
  ---------------------------------------------------------------------------------------------------

     CUMULATIVE VOLUME      L**3       RATES FOR THIS TIME STEP      L**3/T          PACKAGE NAME    
     ------------------                 ------------------------                     ----------------

           IN:                                      IN:
           ---                                      ---
              STO-SS =           0.0000                STO-SS =           0.0000     STORAGE         
              STO-SY = 14396733039.2070                STO-SY =    17862525.6990     STORAGE         
                 WEL =           0.0000                   WEL =           0.0000     WEL_0           
                 DRN =           0.0000                   DRN =           0.0000     DRN_0           
                 RCH = 35087249949.8318                   RCH =    69791827.9541     RCH_0           

            TOTAL IN = 49483982989.0387              TOTAL IN =    87654353.6531

          OUT:                                     OUT:
          ----                                     ----
              STO-SS =           0.0000                STO-SS =           0.0000     STORAGE         
              STO-SY = 13549555086.0897                STO-SY =    15257471.4988     STORAGE         
                 WEL =  8363147404.2029                   WEL =     3029639.7933     WEL_0           
                 DRN = 27571270780.7847                   DRN =    69367240.8875     DRN_0           
                 RCH =           0.0000                   RCH =           0.0000     RCH_0           

           TOTAL OUT = 49483973271.0773             TOTAL OUT =    87654352.1795

            IN - OUT =        9717.9615              IN - OUT =           1.4736

 PERCENT DISCREPANCY =           0.00     PERCENT DISCREPANCY =           0.00




         TIME SUMMARY AT END OF TIME STEP    1 IN STRESS PERIOD  795
                          TIME STEP LENGTH =    1.00000    
                        STRESS PERIOD TIME =    1.00000    
                     TOTAL SIMULATION TIME =    795.000    

end timestep


start timestep kper="796" kstp="1" mode="normal"


 OUTPUT CONTROL FOR STRESS PERIOD 796 IS REPEATED USING SETTINGS FROM A PREVIOUS STRESS PERIOD.


 STRESS PERIOD 796 IS TRANSIENT


 REUSING WELS FROM LAST STRESS PERIOD

 REUSING DRNS FROM LAST STRESS PERIOD

 REUSING RCHS FROM LAST STRESS PERIOD


  VOLUME BUDGET FOR ENTIRE MODEL AT END OF TIME STEP    1, STRESS PERIOD 796
  ---------------------------------------------------------------------------------------------------

     CUMULATIVE VOLUME      L**3       RATES FOR THIS TIME STEP      L**3/T          PACKAGE NAME    
     ------------------                 ------------------------                     ----------------

           IN:                                      IN:
           ---                                      ---
              STO-SS =           0.0000                STO-SS =           0.0000     STORAGE         
              STO-SY = 14411533289.6390                STO-SY =    14800250.4321     STORAGE         
                 WEL =           0.0000                   WEL =           0.0000     WEL_0           
                 DRN =           0.0000                   DRN =           0.0000     DRN_0           
                 RCH = 35161299111.9707                   RCH =    74049162.1389     RCH_0           

            TOTAL IN = 49572832401.6097              TOTAL IN =    88849412.5709

          OUT:                                     OUT:
          ----                                     ----
              STO-SS =           0.0000                STO-SS =           0.0000     STORAGE         
              STO-SY = 13564793159.6749                STO-SY =    15238073.5852     STORAGE         
                 WEL =  8366594543.7695                   WEL =     3447139.5666     WEL_0           
                 DRN = 27641434960.2006                   DRN =    70164179.4160     DRN_0           
                 RCH =           0.0000                   RCH =           0.0000     RCH_0           

           TOTAL OUT = 49572822663.6450             TOTAL OUT =    88849392.5677

            IN - OUT =        9737.9647              IN - OUT =          20.0032

 PERCENT DISCREPANCY =           0.00     PERCENT DISCREPANCY =           0.00




         TIME SUMMARY AT END OF TIME STEP    1 IN STRESS PERIOD  796
                          TIME STEP LENGTH =    1.00000    
                        STRESS PERIOD TIME =    1.00000    
                     TOTAL SIMULATION TIME =    796.000    

end timestep


start timestep kper="797" kstp="1" mode="normal"


 OUTPUT CONTROL FOR STRESS PERIOD 797 IS REPEATED USING SETTINGS FROM A PREVIOUS STRESS PERIOD.


 STRESS PERIOD 797 IS TRANSIENT


 REUSING WELS FROM LAST STRESS PERIOD

 REUSING DRNS FROM LAST STRESS PERIOD

 REUSING RCHS FROM LAST STRESS PERIOD


  VOLUME BUDGET FOR ENTIRE MODEL AT END OF TIME STEP    1, STRESS PERIOD 797
  ---------------------------------------------------------------------------------------------------

     CUMULATIVE VOLUME      L**3       RATES FOR THIS TIME STEP      L**3/T          PACKAGE NAME    
     ------------------                 ------------------------                     ----------------

           IN:                                      IN:
           ---                                      ---
              STO-SS =           0.0000                STO-SS =           0.0000     STORAGE         
              STO-SY = 14430270574.6567                STO-SY =    18737285.0176     STORAGE         
                 WEL =           0.0000                   WEL =           0.0000     WEL_0           
                 DRN =           0.0000                   DRN =           0.0000     DRN_0           
                 RCH = 35221816896.7109                   RCH =    60517784.7403     RCH_0           

            TOTAL IN = 49652087471.3676              TOTAL IN =    79255069.7579

          OUT:                                     OUT:
          ----                                     ----
              STO-SS =           0.0000                STO-SS =           0.0000     STORAGE         
              STO-SY = 13575116353.2527                STO-SY =    10323193.5778     STORAGE         
                 WEL =  8370620767.6846                   WEL =     4026223.9152     WEL_0           
                 DRN = 27706340573.0542                   DRN =    64905612.8536     DRN_0           
                 RCH =           0.0000                   RCH =           0.0000     RCH_0           

           TOTAL OUT = 49652077693.9915             TOTAL OUT =    79255030.3465

            IN - OUT =        9777.3761              IN - OUT =          39.4114

 PERCENT DISCREPANCY =           0.00     PERCENT DISCREPANCY =           0.00




         TIME SUMMARY AT END OF TIME STEP    1 IN STRESS PERIOD  797
                          TIME STEP LENGTH =    1.00000    
                        STRESS PERIOD TIME =    1.00000    
                     TOTAL SIMULATION TIME =    797.000    

end timestep


start timestep kper="798" kstp="1" mode="normal"


 OUTPUT CONTROL FOR STRESS PERIOD 798 IS REPEATED USING SETTINGS FROM A PREVIOUS STRESS PERIOD.


 STRESS PERIOD 798 IS TRANSIENT


 REUSING WELS FROM LAST STRESS PERIOD

 REUSING DRNS FROM LAST STRESS PERIOD

 REUSING RCHS FROM LAST STRESS PERIOD


  VOLUME BUDGET FOR ENTIRE MODEL AT END OF TIME STEP    1, STRESS PERIOD 798
  ---------------------------------------------------------------------------------------------------

     CUMULATIVE VOLUME      L**3       RATES FOR THIS TIME STEP      L**3/T          PACKAGE NAME    
     ------------------                 ------------------------                     ----------------

           IN:                                      IN:
           ---                                      ---
              STO-SS =           0.0000                STO-SS =           0.0000     STORAGE         
              STO-SY = 14448054905.4792                STO-SY =    17784330.8225     STORAGE         
                 WEL =           0.0000                   WEL =           0.0000     WEL_0           
                 DRN =           0.0000                   DRN =           0.0000     DRN_0           
                 RCH = 35287000743.3666                   RCH =    65183846.6557     RCH_0           

            TOTAL IN = 49735055648.8458              TOTAL IN =    82968177.4782

          OUT:                                     OUT:
          ----                                     ----
              STO-SS =           0.0000                STO-SS =           0.0000     STORAGE         
              STO-SY = 13586267092.2811                STO-SY =    11150739.0284     STORAGE         
                 WEL =  8375047812.2083                   WEL =     4427044.5237     WEL_0           
                 DRN = 27773730958.1447                   DRN =    67390385.0905     DRN_0           
                 RCH =           0.0000                   RCH =           0.0000     RCH_0           

           TOTAL OUT = 49735045862.6341             TOTAL OUT =    82968168.6426

            IN - OUT =        9786.2117              IN - OUT =           8.8356

 PERCENT DISCREPANCY =           0.00     PERCENT DISCREPANCY =           0.00




         TIME SUMMARY AT END OF TIME STEP    1 IN STRESS PERIOD  798
                          TIME STEP LENGTH =    1.00000    
                        STRESS PERIOD TIME =    1.00000    
                     TOTAL SIMULATION TIME =    798.000    

end timestep


start timestep kper="799" kstp="1" mode="normal"


 OUTPUT CONTROL FOR STRESS PERIOD 799 IS REPEATED USING SETTINGS FROM A PREVIOUS STRESS PERIOD.


 STRESS PERIOD 799 IS TRANSIENT


 REUSING WELS FROM LAST STRESS PERIOD

 REUSING DRNS FROM LAST STRESS PERIOD

 REUSING RCHS FROM LAST STRESS PERIOD


  VOLUME BUDGET FOR ENTIRE MODEL AT END OF TIME STEP    1, STRESS PERIOD 799
  ---------------------------------------------------------------------------------------------------

     CUMULATIVE VOLUME      L**3       RATES FOR THIS TIME STEP      L**3/T          PACKAGE NAME    
     ------------------                 ------------------------                     ----------------

           IN:                                      IN:
           ---                                      ---
              STO-SS =           0.0000                STO-SS =           0.0000     STORAGE         
              STO-SY = 14468933418.4718                STO-SY =    20878512.9926     STORAGE         
                 WEL =           0.0000                   WEL =           0.0000     WEL_0           
                 DRN =           0.0000                   DRN =           0.0000     DRN_0           
                 RCH = 35339227798.3834                   RCH =    52227055.0167     RCH_0           

            TOTAL IN = 49808161216.8552              TOTAL IN =    73105568.0094

          OUT:                                     OUT:
          ----                                     ----
              STO-SS =           0.0000                STO-SS =           0.0000     STORAGE         
              STO-SY = 13594246347.0975                STO-SY =     7979254.8164     STORAGE         
                 WEL =  8379554054.4234                   WEL =     4506242.2152     WEL_0           
                 DRN = 27834351019.7682                   DRN =    60620061.6235     DRN_0           
                 RCH =           0.0000                   RCH =           0.0000     RCH_0           

           TOTAL OUT = 49808151421.2892             TOTAL OUT =    73105558.6551

            IN - OUT =        9795.5660              IN - OUT =           9.3543

 PERCENT DISCREPANCY =           0.00     PERCENT DISCREPANCY =           0.00




         TIME SUMMARY AT END OF TIME STEP    1 IN STRESS PERIOD  799
                          TIME STEP LENGTH =    1.00000    
                        STRESS PERIOD TIME =    1.00000    
                     TOTAL SIMULATION TIME =    799.000    

end timestep


start timestep kper="800" kstp="1" mode="normal"


 OUTPUT CONTROL FOR STRESS PERIOD 800 IS REPEATED USING SETTINGS FROM A PREVIOUS STRESS PERIOD.


 STRESS PERIOD 800 IS TRANSIENT


 REUSING WELS FROM LAST STRESS PERIOD

 REUSING DRNS FROM LAST STRESS PERIOD

 REUSING RCHS FROM LAST STRESS PERIOD


  VOLUME BUDGET FOR ENTIRE MODEL AT END OF TIME STEP    1, STRESS PERIOD 800
  ---------------------------------------------------------------------------------------------------

     CUMULATIVE VOLUME      L**3       RATES FOR THIS TIME STEP      L**3/T          PACKAGE NAME    
     ------------------                 ------------------------                     ----------------

           IN:                                      IN:
           ---                                      ---
              STO-SS =           0.0000                STO-SS =           0.0000     STORAGE         
              STO-SY = 14489378324.0173                STO-SY =    20444905.5455     STORAGE         
                 WEL =           0.0000                   WEL =           0.0000     WEL_0           
                 DRN =           0.0000                   DRN =           0.0000     DRN_0           
                 RCH = 35390503722.9892                   RCH =    51275924.6059     RCH_0           

            TOTAL IN = 49879882047.0066              TOTAL IN =    71720830.1514

          OUT:                                     OUT:
          ----                                     ----
              STO-SS =           0.0000                STO-SS =           0.0000     STORAGE         
              STO-SY = 13601598032.3654                STO-SY =     7351685.2679     STORAGE         
                 WEL =  8384547565.4923                   WEL =     4993511.0688     WEL_0           
                 DRN = 27893726652.9628                   DRN =    59375633.1945     DRN_0           
                 RCH =           0.0000                   RCH =           0.0000     RCH_0           

           TOTAL OUT = 49879872250.8204             TOTAL OUT =    71720829.5312

            IN - OUT =        9796.1862              IN - OUT =           0.6202

 PERCENT DISCREPANCY =           0.00     PERCENT DISCREPANCY =           0.00




         TIME SUMMARY AT END OF TIME STEP    1 IN STRESS PERIOD  800
                          TIME STEP LENGTH =    1.00000    
                        STRESS PERIOD TIME =    1.00000    
                     TOTAL SIMULATION TIME =    800.000    

end timestep


start timestep kper="801" kstp="1" mode="normal"


 OUTPUT CONTROL FOR STRESS PERIOD 801 IS REPEATED USING SETTINGS FROM A PREVIOUS STRESS PERIOD.


 STRESS PERIOD 801 IS TRANSIENT


 REUSING WELS FROM LAST STRESS PERIOD

 REUSING DRNS FROM LAST STRESS PERIOD

 REUSING RCHS FROM LAST STRESS PERIOD


  VOLUME BUDGET FOR ENTIRE MODEL AT END OF TIME STEP    1, STRESS PERIOD 801
  ---------------------------------------------------------------------------------------------------

     CUMULATIVE VOLUME      L**3       RATES FOR THIS TIME STEP      L**3/T          PACKAGE NAME    
     ------------------                 ------------------------                     ----------------

           IN:                                      IN:
           ---                                      ---
              STO-SS =           0.0000                STO-SS =           0.0000     STORAGE         
              STO-SY = 14504885249.9235                STO-SY =    15506925.9062     STORAGE         
                 WEL =           0.0000                   WEL =           0.0000     WEL_0           
                 DRN =           0.0000                   DRN =           0.0000     DRN_0           
                 RCH = 35452788656.8302                   RCH =    62284933.8410     RCH_0           

            TOTAL IN = 49957673906.7537              TOTAL IN =    77791859.7472

          OUT:                                     OUT:
          ----                                     ----
              STO-SS =           0.0000                STO-SS =           0.0000     STORAGE         
              STO-SY = 13611417387.4898                STO-SY =     9819355.1245     STORAGE         
                 WEL =  8389589765.5800                   WEL =     5042200.0877     WEL_0           
                 DRN = 27956656957.4470                   DRN =    62930304.4843     DRN_0           
                 RCH =           0.0000                   RCH =           0.0000     RCH_0           

           TOTAL OUT = 49957664110.5168             TOTAL OUT =    77791859.6964

            IN - OUT =        9796.2369              IN - OUT =       5.0749E-02

 PERCENT DISCREPANCY =           0.00     PERCENT DISCREPANCY =           0.00




         TIME SUMMARY AT END OF TIME STEP    1 IN STRESS PERIOD  801
                          TIME STEP LENGTH =    1.00000    
                        STRESS PERIOD TIME =    1.00000    
                     TOTAL SIMULATION TIME =    801.000    

end timestep


start timestep kper="802" kstp="1" mode="normal"


 OUTPUT CONTROL FOR STRESS PERIOD 802 IS REPEATED USING SETTINGS FROM A PREVIOUS STRESS PERIOD.


 STRESS PERIOD 802 IS TRANSIENT


 REUSING WELS FROM LAST STRESS PERIOD

 REUSING DRNS FROM LAST STRESS PERIOD

 REUSING RCHS FROM LAST STRESS PERIOD


  VOLUME BUDGET FOR ENTIRE MODEL AT END OF TIME STEP    1, STRESS PERIOD 802
  ---------------------------------------------------------------------------------------------------

     CUMULATIVE VOLUME      L**3       RATES FOR THIS TIME STEP      L**3/T          PACKAGE NAME    
     ------------------                 ------------------------                     ----------------

           IN:                                      IN:
           ---                                      ---
              STO-SS =           0.0000                STO-SS =           0.0000     STORAGE         
              STO-SY = 14518661885.5755                STO-SY =    13776635.6520     STORAGE         
                 WEL =           0.0000                   WEL =           0.0000     WEL_0           
                 DRN =           0.0000                   DRN =           0.0000     DRN_0           
                 RCH = 35520997265.4418                   RCH =    68208608.6116     RCH_0           

            TOTAL IN = 50039659151.0173              TOTAL IN =    81985244.2636

          OUT:                                     OUT:
          ----                                     ----
              STO-SS =           0.0000                STO-SS =           0.0000     STORAGE         
              STO-SY = 13623664163.0178                STO-SY =    12246775.5279     STORAGE         
                 WEL =  8394466620.5669                   WEL =     4876854.9870     WEL_0           
                 DRN = 28021518568.5588                   DRN =    64861611.1118     DRN_0           
                 RCH =           0.0000                   RCH =           0.0000     RCH_0           

           TOTAL OUT = 50039649352.1435             TOTAL OUT =    81985241.6267

            IN - OUT =        9798.8738              IN - OUT =           2.6369

 PERCENT DISCREPANCY =           0.00     PERCENT DISCREPANCY =           0.00




         TIME SUMMARY AT END OF TIME STEP    1 IN STRESS PERIOD  802
                          TIME STEP LENGTH =    1.00000    
                        STRESS PERIOD TIME =    1.00000    
                     TOTAL SIMULATION TIME =    802.000    

end timestep


start timestep kper="803" kstp="1" mode="normal"


 OUTPUT CONTROL FOR STRESS PERIOD 803 IS REPEATED USING SETTINGS FROM A PREVIOUS STRESS PERIOD.


 STRESS PERIOD 803 IS TRANSIENT


 REUSING WELS FROM LAST STRESS PERIOD

 REUSING DRNS FROM LAST STRESS PERIOD

 REUSING RCHS FROM LAST STRESS PERIOD


  VOLUME BUDGET FOR ENTIRE MODEL AT END OF TIME STEP    1, STRESS PERIOD 803
  ---------------------------------------------------------------------------------------------------

     CUMULATIVE VOLUME      L**3       RATES FOR THIS TIME STEP      L**3/T          PACKAGE NAME    
     ------------------                 ------------------------                     ----------------

           IN:                                      IN:
           ---                                      ---
              STO-SS =           0.0000                STO-SS =           0.0000     STORAGE         
              STO-SY = 14539254314.3453                STO-SY =    20592428.7697     STORAGE         
                 WEL =           0.0000                   WEL =           0.0000     WEL_0           
                 DRN =           0.0000                   DRN =           0.0000     DRN_0           
                 RCH = 35569270782.1380                   RCH =    48273516.6962     RCH_0           

            TOTAL IN = 50108525096.4833              TOTAL IN =    68865945.4660

          OUT:                                     OUT:
          ----                                     ----
              STO-SS =           0.0000                STO-SS =           0.0000     STORAGE         
              STO-SY = 13630043107.5920                STO-SY =     6378944.5742     STORAGE         
                 WEL =  8399473131.1237                   WEL =     5006510.5568     WEL_0           
                 DRN = 28078999034.9982                   DRN =    57480466.4394     DRN_0           
                 RCH =           0.0000                   RCH =           0.0000     RCH_0           

           TOTAL OUT = 50108515273.7139             TOTAL OUT =    68865921.5704

            IN - OUT =        9822.7694              IN - OUT =          23.8955

 PERCENT DISCREPANCY =           0.00     PERCENT DISCREPANCY =           0.00




         TIME SUMMARY AT END OF TIME STEP    1 IN STRESS PERIOD  803
                          TIME STEP LENGTH =    1.00000    
                        STRESS PERIOD TIME =    1.00000    
                     TOTAL SIMULATION TIME =    803.000    

end timestep


start timestep kper="804" kstp="1" mode="normal"


 OUTPUT CONTROL FOR STRESS PERIOD 804 IS REPEATED USING SETTINGS FROM A PREVIOUS STRESS PERIOD.


 STRESS PERIOD 804 IS TRANSIENT


 REUSING WELS FROM LAST STRESS PERIOD

 REUSING DRNS FROM LAST STRESS PERIOD

 REUSING RCHS FROM LAST STRESS PERIOD


  VOLUME BUDGET FOR ENTIRE MODEL AT END OF TIME STEP    1, STRESS PERIOD 804
  ---------------------------------------------------------------------------------------------------

     CUMULATIVE VOLUME      L**3       RATES FOR THIS TIME STEP      L**3/T          PACKAGE NAME    
     ------------------                 ------------------------                     ----------------

           IN:                                      IN:
           ---                                      ---
              STO-SS =           0.0000                STO-SS =           0.0000     STORAGE         
              STO-SY = 14552541944.7772                STO-SY =    13287630.4320     STORAGE         
                 WEL =           0.0000                   WEL =           0.0000     WEL_0           
                 DRN =           0.0000                   DRN =           0.0000     DRN_0           
                 RCH = 35633390615.6081                   RCH =    64119833.4700     RCH_0           

            TOTAL IN = 50185932560.3853              TOTAL IN =    77407463.9020

          OUT:                                     OUT:
          ----                                     ----
              STO-SS =           0.0000                STO-SS =           0.0000     STORAGE         
              STO-SY = 13642449853.7327                STO-SY =    12406746.1407     STORAGE         
                 WEL =  8404430826.8077                   WEL =     4957695.6840     WEL_0           
                 DRN = 28139042062.6544                   DRN =    60043027.6562     DRN_0           
                 RCH =           0.0000                   RCH =           0.0000     RCH_0           

           TOTAL OUT = 50185922743.1948             TOTAL OUT =    77407469.4809

            IN - OUT =        9817.1905              IN - OUT =          -5.5789

 PERCENT DISCREPANCY =           0.00     PERCENT DISCREPANCY =          -0.00




         TIME SUMMARY AT END OF TIME STEP    1 IN STRESS PERIOD  804
                          TIME STEP LENGTH =    1.00000    
                        STRESS PERIOD TIME =    1.00000    
                     TOTAL SIMULATION TIME =    804.000    

end timestep


start timestep kper="805" kstp="1" mode="normal"


 OUTPUT CONTROL FOR STRESS PERIOD 805 IS REPEATED USING SETTINGS FROM A PREVIOUS STRESS PERIOD.


 STRESS PERIOD 805 IS TRANSIENT


 REUSING WELS FROM LAST STRESS PERIOD

 REUSING DRNS FROM LAST STRESS PERIOD

 REUSING RCHS FROM LAST STRESS PERIOD


  VOLUME BUDGET FOR ENTIRE MODEL AT END OF TIME STEP    1, STRESS PERIOD 805
  ---------------------------------------------------------------------------------------------------

     CUMULATIVE VOLUME      L**3       RATES FOR THIS TIME STEP      L**3/T          PACKAGE NAME    
     ------------------                 ------------------------                     ----------------

           IN:                                      IN:
           ---                                      ---
              STO-SS =           0.0000                STO-SS =           0.0000     STORAGE         
              STO-SY = 14568359042.4308                STO-SY =    15817097.6536     STORAGE         
                 WEL =           0.0000                   WEL =           0.0000     WEL_0           
                 DRN =           0.0000                   DRN =           0.0000     DRN_0           
                 RCH = 35691669957.2006                   RCH =    58279341.5926     RCH_0           

            TOTAL IN = 50260028999.6314              TOTAL IN =    74096439.2461

          OUT:                                     OUT:
          ----                                     ----
              STO-SS =           0.0000                STO-SS =           0.0000     STORAGE         
              STO-SY = 13650872811.5474                STO-SY =     8422957.8147     STORAGE         
                 WEL =  8409588684.5842                   WEL =     5157857.7765     WEL_0           
                 DRN = 28199557679.4018                   DRN =    60515616.7474     DRN_0           
                 RCH =           0.0000                   RCH =           0.0000     RCH_0           

           TOTAL OUT = 50260019175.5334             TOTAL OUT =    74096432.3386

            IN - OUT =        9824.0980              IN - OUT =           6.9075

 PERCENT DISCREPANCY =           0.00     PERCENT DISCREPANCY =           0.00




         TIME SUMMARY AT END OF TIME STEP    1 IN STRESS PERIOD  805
                          TIME STEP LENGTH =    1.00000    
                        STRESS PERIOD TIME =    1.00000    
                     TOTAL SIMULATION TIME =    805.000    

end timestep


start timestep kper="806" kstp="1" mode="normal"


 OUTPUT CONTROL FOR STRESS PERIOD 806 IS REPEATED USING SETTINGS FROM A PREVIOUS STRESS PERIOD.


 STRESS PERIOD 806 IS TRANSIENT


 REUSING WELS FROM LAST STRESS PERIOD

 REUSING DRNS FROM LAST STRESS PERIOD

 REUSING RCHS FROM LAST STRESS PERIOD


  VOLUME BUDGET FOR ENTIRE MODEL AT END OF TIME STEP    1, STRESS PERIOD 806
  ---------------------------------------------------------------------------------------------------

     CUMULATIVE VOLUME      L**3       RATES FOR THIS TIME STEP      L**3/T          PACKAGE NAME    
     ------------------                 ------------------------                     ----------------

           IN:                                      IN:
           ---                                      ---
              STO-SS =           0.0000                STO-SS =           0.0000     STORAGE         
              STO-SY = 14584244386.2890                STO-SY =    15885343.8582     STORAGE         
                 WEL =           0.0000                   WEL =           0.0000     WEL_0           
                 DRN =           0.0000                   DRN =           0.0000     DRN_0           
                 RCH = 35746843352.0105                   RCH =    55173394.8099     RCH_0           

            TOTAL IN = 50331087738.2995              TOTAL IN =    71058738.6681

          OUT:                                     OUT:
          ----                                     ----
              STO-SS =           0.0000                STO-SS =           0.0000     STORAGE         
              STO-SY = 13658375022.4930                STO-SY =     7502210.9456     STORAGE         
                 WEL =  8414632423.3192                   WEL =     5043738.7350     WEL_0           
                 DRN = 28258070466.4696                   DRN =    58512787.0678     DRN_0           
                 RCH =           0.0000                   RCH =           0.0000     RCH_0           

           TOTAL OUT = 50331077912.2818             TOTAL OUT =    71058736.7484

            IN - OUT =        9826.0177              IN - OUT =           1.9197

 PERCENT DISCREPANCY =           0.00     PERCENT DISCREPANCY =           0.00




         TIME SUMMARY AT END OF TIME STEP    1 IN STRESS PERIOD  806
                          TIME STEP LENGTH =    1.00000    
                        STRESS PERIOD TIME =    1.00000    
                     TOTAL SIMULATION TIME =    806.000    

end timestep


start timestep kper="807" kstp="1" mode="normal"


 OUTPUT CONTROL FOR STRESS PERIOD 807 IS REPEATED USING SETTINGS FROM A PREVIOUS STRESS PERIOD.


 STRESS PERIOD 807 IS TRANSIENT


 REUSING WELS FROM LAST STRESS PERIOD

 REUSING DRNS FROM LAST STRESS PERIOD

 REUSING RCHS FROM LAST STRESS PERIOD


  VOLUME BUDGET FOR ENTIRE MODEL AT END OF TIME STEP    1, STRESS PERIOD 807
  ---------------------------------------------------------------------------------------------------

     CUMULATIVE VOLUME      L**3       RATES FOR THIS TIME STEP      L**3/T          PACKAGE NAME    
     ------------------                 ------------------------                     ----------------

           IN:                                      IN:
           ---                                      ---
              STO-SS =           0.0000                STO-SS =           0.0000     STORAGE         
              STO-SY = 14605006704.5269                STO-SY =    20762318.2379     STORAGE         
                 WEL =           0.0000                   WEL =           0.0000     WEL_0           
                 DRN =           0.0000                   DRN =           0.0000     DRN_0           
                 RCH = 35790893586.5220                   RCH =    44050234.5115     RCH_0           

            TOTAL IN = 50395900291.0489              TOTAL IN =    64812552.7494

          OUT:                                     OUT:
          ----                                     ----
              STO-SS =           0.0000                STO-SS =           0.0000     STORAGE         
              STO-SY = 13663746526.1769                STO-SY =     5371503.6839     STORAGE         
                 WEL =  8419960244.5028                   WEL =     5327821.1836     WEL_0           
                 DRN = 28312183685.4150                   DRN =    54113218.9454     DRN_0           
                 RCH =           0.0000                   RCH =           0.0000     RCH_0           

           TOTAL OUT = 50395890456.0947             TOTAL OUT =    64812543.8129

            IN - OUT =        9834.9542              IN - OUT =           8.9365

 PERCENT DISCREPANCY =           0.00     PERCENT DISCREPANCY =           0.00




         TIME SUMMARY AT END OF TIME STEP    1 IN STRESS PERIOD  807
                          TIME STEP LENGTH =    1.00000    
                        STRESS PERIOD TIME =    1.00000    
                     TOTAL SIMULATION TIME =    807.000    

end timestep


start timestep kper="808" kstp="1" mode="normal"


 OUTPUT CONTROL FOR STRESS PERIOD 808 IS REPEATED USING SETTINGS FROM A PREVIOUS STRESS PERIOD.


 STRESS PERIOD 808 IS TRANSIENT


 REUSING WELS FROM LAST STRESS PERIOD

 REUSING DRNS FROM LAST STRESS PERIOD

 REUSING RCHS FROM LAST STRESS PERIOD


  VOLUME BUDGET FOR ENTIRE MODEL AT END OF TIME STEP    1, STRESS PERIOD 808
  ---------------------------------------------------------------------------------------------------

     CUMULATIVE VOLUME      L**3       RATES FOR THIS TIME STEP      L**3/T          PACKAGE NAME    
     ------------------                 ------------------------                     ----------------

           IN:                                      IN:
           ---                                      ---
              STO-SS =           0.0000                STO-SS =           0.0000     STORAGE         
              STO-SY = 14623853368.7179                STO-SY =    18846664.1909     STORAGE         
                 WEL =           0.0000                   WEL =           0.0000     WEL_0           
                 DRN =           0.0000                   DRN =           0.0000     DRN_0           
                 RCH = 35837143567.8316                   RCH =    46249981.3096     RCH_0           

            TOTAL IN = 50460996936.5495              TOTAL IN =    65096645.5006

          OUT:                                     OUT:
          ----                                     ----
              STO-SS =           0.0000                STO-SS =           0.0000     STORAGE         
              STO-SY = 13669616505.6027                STO-SY =     5869979.4258     STORAGE         
                 WEL =  8425227913.1840                   WEL =     5267668.6812     WEL_0           
                 DRN = 28366142595.0182                   DRN =    53958909.6033     DRN_0           
                 RCH =           0.0000                   RCH =           0.0000     RCH_0           

           TOTAL OUT = 50460987013.8050             TOTAL OUT =    65096557.7102

            IN - OUT =        9922.7445              IN - OUT =          87.7903

 PERCENT DISCREPANCY =           0.00     PERCENT DISCREPANCY =           0.00




         TIME SUMMARY AT END OF TIME STEP    1 IN STRESS PERIOD  808
                          TIME STEP LENGTH =    1.00000    
                        STRESS PERIOD TIME =    1.00000    
                     TOTAL SIMULATION TIME =    808.000    

end timestep


start timestep kper="809" kstp="1" mode="normal"


 OUTPUT CONTROL FOR STRESS PERIOD 809 IS REPEATED USING SETTINGS FROM A PREVIOUS STRESS PERIOD.


 STRESS PERIOD 809 IS TRANSIENT


 REUSING WELS FROM LAST STRESS PERIOD

 REUSING DRNS FROM LAST STRESS PERIOD

 REUSING RCHS FROM LAST STRESS PERIOD


  VOLUME BUDGET FOR ENTIRE MODEL AT END OF TIME STEP    1, STRESS PERIOD 809
  ---------------------------------------------------------------------------------------------------

     CUMULATIVE VOLUME      L**3       RATES FOR THIS TIME STEP      L**3/T          PACKAGE NAME    
     ------------------                 ------------------------                     ----------------

           IN:                                      IN:
           ---                                      ---
              STO-SS =           0.0000                STO-SS =           0.0000     STORAGE         
              STO-SY = 14640830306.4408                STO-SY =    16976937.7230     STORAGE         
                 WEL =           0.0000                   WEL =           0.0000     WEL_0           
                 DRN =           0.0000                   DRN =           0.0000     DRN_0           
                 RCH = 35888461070.3023                   RCH =    51317502.4707     RCH_0           

            TOTAL IN = 50529291376.7431              TOTAL IN =    68294440.1937

          OUT:                                     OUT:
          ----                                     ----
              STO-SS =           0.0000                STO-SS =           0.0000     STORAGE         
              STO-SY = 13677920911.8003                STO-SY =     8304406.1976     STORAGE         
                 WEL =  8430593536.7119                   WEL =     5365623.5278     WEL_0           
                 DRN = 28420766986.9157                   DRN =    54624391.8975     DRN_0           
                 RCH =           0.0000                   RCH =           0.0000     RCH_0           

           TOTAL OUT = 50529281435.4278             TOTAL OUT =    68294421.6228

            IN - OUT =        9941.3153              IN - OUT =          18.5708

 PERCENT DISCREPANCY =           0.00     PERCENT DISCREPANCY =           0.00




         TIME SUMMARY AT END OF TIME STEP    1 IN STRESS PERIOD  809
                          TIME STEP LENGTH =    1.00000    
                        STRESS PERIOD TIME =    1.00000    
                     TOTAL SIMULATION TIME =    809.000    

end timestep


start timestep kper="810" kstp="1" mode="normal"


 OUTPUT CONTROL FOR STRESS PERIOD 810 IS REPEATED USING SETTINGS FROM A PREVIOUS STRESS PERIOD.


 STRESS PERIOD 810 IS TRANSIENT


 REUSING WELS FROM LAST STRESS PERIOD

 REUSING DRNS FROM LAST STRESS PERIOD

 REUSING RCHS FROM LAST STRESS PERIOD


  VOLUME BUDGET FOR ENTIRE MODEL AT END OF TIME STEP    1, STRESS PERIOD 810
  ---------------------------------------------------------------------------------------------------

     CUMULATIVE VOLUME      L**3       RATES FOR THIS TIME STEP      L**3/T          PACKAGE NAME    
     ------------------                 ------------------------                     ----------------

           IN:                                      IN:
           ---                                      ---
              STO-SS =           0.0000                STO-SS =           0.0000     STORAGE         
              STO-SY = 14659097363.2549                STO-SY =    18267056.8141     STORAGE         
                 WEL =           0.0000                   WEL =           0.0000     WEL_0           
                 DRN =           0.0000                   DRN =           0.0000     DRN_0           
                 RCH = 35933509479.9789                   RCH =    45048409.6766     RCH_0           

            TOTAL IN = 50592606843.2338              TOTAL IN =    63315466.4906

          OUT:                                     OUT:
          ----                                     ----
              STO-SS =           0.0000                STO-SS =           0.0000     STORAGE         
              STO-SY = 13683096669.9271                STO-SY =     5175758.1269     STORAGE         
                 WEL =  8435914115.2208                   WEL =     5320578.5089     WEL_0           
                 DRN = 28473586225.3270                   DRN =    52819238.4112     DRN_0           
                 RCH =           0.0000                   RCH =           0.0000     RCH_0           

           TOTAL OUT = 50592597010.4749             TOTAL OUT =    63315575.0470

            IN - OUT =        9832.7589              IN - OUT =        -108.5564

 PERCENT DISCREPANCY =           0.00     PERCENT DISCREPANCY =          -0.00




         TIME SUMMARY AT END OF TIME STEP    1 IN STRESS PERIOD  810
                          TIME STEP LENGTH =    1.00000    
                        STRESS PERIOD TIME =    1.00000    
                     TOTAL SIMULATION TIME =    810.000    

end timestep


start timestep kper="811" kstp="1" mode="normal"


 OUTPUT CONTROL FOR STRESS PERIOD 811 IS REPEATED USING SETTINGS FROM A PREVIOUS STRESS PERIOD.


 STRESS PERIOD 811 IS TRANSIENT


 REUSING WELS FROM LAST STRESS PERIOD

 REUSING DRNS FROM LAST STRESS PERIOD

 REUSING RCHS FROM LAST STRESS PERIOD


  VOLUME BUDGET FOR ENTIRE MODEL AT END OF TIME STEP    1, STRESS PERIOD 811
  ---------------------------------------------------------------------------------------------------

     CUMULATIVE VOLUME      L**3       RATES FOR THIS TIME STEP      L**3/T          PACKAGE NAME    
     ------------------                 ------------------------                     ----------------

           IN:                                      IN:
           ---                                      ---
              STO-SS =           0.0000                STO-SS =           0.0000     STORAGE         
              STO-SY = 14681352905.4329                STO-SY =    22255542.1780     STORAGE         
                 WEL =           0.0000                   WEL =           0.0000     WEL_0           
                 DRN =           0.0000                   DRN =           0.0000     DRN_0           
                 RCH = 35971182072.3816                   RCH =    37672592.4028     RCH_0           

            TOTAL IN = 50652534977.8145              TOTAL IN =    59928134.5807

          OUT:                                     OUT:
          ----                                     ----
              STO-SS =           0.0000                STO-SS =           0.0000     STORAGE         
              STO-SY = 13687407883.1000                STO-SY =     4311213.1729     STORAGE         
                 WEL =  8441931681.5260                   WEL =     6017566.3052     WEL_0           
                 DRN = 28523185574.9696                   DRN =    49599349.6426     DRN_0           
                 RCH =           0.0000                   RCH =           0.0000     RCH_0           

           TOTAL OUT = 50652525139.5956             TOTAL OUT =    59928129.1207

            IN - OUT =        9838.2189              IN - OUT =           5.4600

 PERCENT DISCREPANCY =           0.00     PERCENT DISCREPANCY =           0.00




         TIME SUMMARY AT END OF TIME STEP    1 IN STRESS PERIOD  811
                          TIME STEP LENGTH =    1.00000    
                        STRESS PERIOD TIME =    1.00000    
                     TOTAL SIMULATION TIME =    811.000    

end timestep


start timestep kper="812" kstp="1" mode="normal"


 OUTPUT CONTROL FOR STRESS PERIOD 812 IS REPEATED USING SETTINGS FROM A PREVIOUS STRESS PERIOD.


 STRESS PERIOD 812 IS TRANSIENT


 REUSING WELS FROM LAST STRESS PERIOD

 REUSING DRNS FROM LAST STRESS PERIOD

 REUSING RCHS FROM LAST STRESS PERIOD


  VOLUME BUDGET FOR ENTIRE MODEL AT END OF TIME STEP    1, STRESS PERIOD 812
  ---------------------------------------------------------------------------------------------------

     CUMULATIVE VOLUME      L**3       RATES FOR THIS TIME STEP      L**3/T          PACKAGE NAME    
     ------------------                 ------------------------                     ----------------

           IN:                                      IN:
           ---                                      ---
              STO-SS =           0.0000                STO-SS =           0.0000     STORAGE         
              STO-SY = 14704802771.7392                STO-SY =    23449866.3064     STORAGE         
                 WEL =           0.0000                   WEL =           0.0000     WEL_0           
                 DRN =           0.0000                   DRN =           0.0000     DRN_0           
                 RCH = 36006152618.9218                   RCH =    34970546.5401     RCH_0           

            TOTAL IN = 50710955390.6610              TOTAL IN =    58420412.8465

          OUT:                                     OUT:
          ----                                     ----
              STO-SS =           0.0000                STO-SS =           0.0000     STORAGE         
              STO-SY = 13691472958.6083                STO-SY =     4065075.5083     STORAGE         
                 WEL =  8448891701.1016                   WEL =     6960019.5756     WEL_0           
                 DRN = 28570580876.8860                   DRN =    47395301.9164     DRN_0           
                 RCH =           0.0000                   RCH =           0.0000     RCH_0           

           TOTAL OUT = 50710945536.5959             TOTAL OUT =    58420397.0003

            IN - OUT =        9854.0651              IN - OUT =          15.8462

 PERCENT DISCREPANCY =           0.00     PERCENT DISCREPANCY =           0.00




         TIME SUMMARY AT END OF TIME STEP    1 IN STRESS PERIOD  812
                          TIME STEP LENGTH =    1.00000    
                        STRESS PERIOD TIME =    1.00000    
                     TOTAL SIMULATION TIME =    812.000    

end timestep


start timestep kper="813" kstp="1" mode="normal"


 OUTPUT CONTROL FOR STRESS PERIOD 813 IS REPEATED USING SETTINGS FROM A PREVIOUS STRESS PERIOD.


 STRESS PERIOD 813 IS TRANSIENT


 REUSING WELS FROM LAST STRESS PERIOD

 REUSING DRNS FROM LAST STRESS PERIOD

 REUSING RCHS FROM LAST STRESS PERIOD


  VOLUME BUDGET FOR ENTIRE MODEL AT END OF TIME STEP    1, STRESS PERIOD 813
  ---------------------------------------------------------------------------------------------------

     CUMULATIVE VOLUME      L**3       RATES FOR THIS TIME STEP      L**3/T          PACKAGE NAME    
     ------------------                 ------------------------                     ----------------

           IN:                                      IN:
           ---                                      ---
              STO-SS =           0.0000                STO-SS =           0.0000     STORAGE         
              STO-SY = 14729087463.5694                STO-SY =    24284691.8301     STORAGE         
                 WEL =           0.0000                   WEL =           0.0000     WEL_0           
                 DRN =           0.0000                   DRN =           0.0000     DRN_0           
                 RCH = 36042459561.3025                   RCH =    36306942.3807     RCH_0           

            TOTAL IN = 50771547024.8719              TOTAL IN =    60591634.2109

          OUT:                                     OUT:
          ----                                     ----
              STO-SS =           0.0000                STO-SS =           0.0000     STORAGE         
              STO-SY = 13695605550.2573                STO-SY =     4132591.6491     STORAGE         
                 WEL =  8458550024.4175                   WEL =     9658323.3159     WEL_0           
                 DRN = 28617381626.1945                   DRN =    46800749.3085     DRN_0           
                 RCH =           0.0000                   RCH =           0.0000     RCH_0           

           TOTAL OUT = 50771537200.8694             TOTAL OUT =    60591664.2735

            IN - OUT =        9824.0025              IN - OUT =         -30.0626

 PERCENT DISCREPANCY =           0.00     PERCENT DISCREPANCY =          -0.00




         TIME SUMMARY AT END OF TIME STEP    1 IN STRESS PERIOD  813
                          TIME STEP LENGTH =    1.00000    
                        STRESS PERIOD TIME =    1.00000    
                     TOTAL SIMULATION TIME =    813.000    

end timestep


start timestep kper="814" kstp="1" mode="normal"


 OUTPUT CONTROL FOR STRESS PERIOD 814 IS REPEATED USING SETTINGS FROM A PREVIOUS STRESS PERIOD.


 STRESS PERIOD 814 IS TRANSIENT


 REUSING WELS FROM LAST STRESS PERIOD

 REUSING DRNS FROM LAST STRESS PERIOD

 REUSING RCHS FROM LAST STRESS PERIOD


  VOLUME BUDGET FOR ENTIRE MODEL AT END OF TIME STEP    1, STRESS PERIOD 814
  ---------------------------------------------------------------------------------------------------

     CUMULATIVE VOLUME      L**3       RATES FOR THIS TIME STEP      L**3/T          PACKAGE NAME    
     ------------------                 ------------------------                     ----------------

           IN:                                      IN:
           ---                                      ---
              STO-SS =           0.0000                STO-SS =           0.0000     STORAGE         
              STO-SY = 14749939682.7883                STO-SY =    20852219.2189     STORAGE         
                 WEL =           0.0000                   WEL =           0.0000     WEL_0           
                 DRN =           0.0000                   DRN =           0.0000     DRN_0           
                 RCH = 36079540557.1380                   RCH =    37080995.8355     RCH_0           

            TOTAL IN = 50829480239.9263              TOTAL IN =    57933215.0544

          OUT:                                     OUT:
          ----                                     ----
              STO-SS =           0.0000                STO-SS =           0.0000     STORAGE         
              STO-SY = 13699587666.5269                STO-SY =     3982116.2696     STORAGE         
                 WEL =  8464505785.0929                   WEL =     5955760.6754     WEL_0           
                 DRN = 28665376901.4016                   DRN =    47995275.2071     DRN_0           
                 RCH =           0.0000                   RCH =           0.0000     RCH_0           

           TOTAL OUT = 50829470353.0214             TOTAL OUT =    57933152.1520

            IN - OUT =        9886.9049              IN - OUT =          62.9024

 PERCENT DISCREPANCY =           0.00     PERCENT DISCREPANCY =           0.00




         TIME SUMMARY AT END OF TIME STEP    1 IN STRESS PERIOD  814
                          TIME STEP LENGTH =    1.00000    
                        STRESS PERIOD TIME =    1.00000    
                     TOTAL SIMULATION TIME =    814.000    

end timestep


start timestep kper="815" kstp="1" mode="normal"


 OUTPUT CONTROL FOR STRESS PERIOD 815 IS REPEATED USING SETTINGS FROM A PREVIOUS STRESS PERIOD.


 STRESS PERIOD 815 IS TRANSIENT


 REUSING WELS FROM LAST STRESS PERIOD

 REUSING DRNS FROM LAST STRESS PERIOD

 REUSING RCHS FROM LAST STRESS PERIOD


  VOLUME BUDGET FOR ENTIRE MODEL AT END OF TIME STEP    1, STRESS PERIOD 815
  ---------------------------------------------------------------------------------------------------

     CUMULATIVE VOLUME      L**3       RATES FOR THIS TIME STEP      L**3/T          PACKAGE NAME    
     ------------------                 ------------------------                     ----------------

           IN:                                      IN:
           ---                                      ---
              STO-SS =           0.0000                STO-SS =           0.0000     STORAGE         
              STO-SY = 14769053329.8741                STO-SY =    19113647.0858     STORAGE         
                 WEL =           0.0000                   WEL =           0.0000     WEL_0           
                 DRN =           0.0000                   DRN =           0.0000     DRN_0           
                 RCH = 36118524038.0471                   RCH =    38983480.9091     RCH_0           

            TOTAL IN = 50887577367.9212              TOTAL IN =    58097127.9949

          OUT:                                     OUT:
          ----                                     ----
              STO-SS =           0.0000                STO-SS =           0.0000     STORAGE         
              STO-SY = 13703685600.4777                STO-SY =     4097933.9508     STORAGE         
                 WEL =  8470283444.7452                   WEL =     5777659.6524     WEL_0           
                 DRN = 28713598313.2179                   DRN =    48221411.8164     DRN_0           
                 RCH =           0.0000                   RCH =           0.0000     RCH_0           

           TOTAL OUT = 50887567358.4409             TOTAL OUT =    58097005.4195

            IN - OUT =       10009.4803              IN - OUT =         122.5754

 PERCENT DISCREPANCY =           0.00     PERCENT DISCREPANCY =           0.00




         TIME SUMMARY AT END OF TIME STEP    1 IN STRESS PERIOD  815
                          TIME STEP LENGTH =    1.00000    
                        STRESS PERIOD TIME =    1.00000    
                     TOTAL SIMULATION TIME =    815.000    

end timestep


start timestep kper="816" kstp="1" mode="normal"


 OUTPUT CONTROL FOR STRESS PERIOD 816 IS REPEATED USING SETTINGS FROM A PREVIOUS STRESS PERIOD.


 STRESS PERIOD 816 IS TRANSIENT


 REUSING WELS FROM LAST STRESS PERIOD

 REUSING DRNS FROM LAST STRESS PERIOD

 REUSING RCHS FROM LAST STRESS PERIOD


  VOLUME BUDGET FOR ENTIRE MODEL AT END OF TIME STEP    1, STRESS PERIOD 816
  ---------------------------------------------------------------------------------------------------

     CUMULATIVE VOLUME      L**3       RATES FOR THIS TIME STEP      L**3/T          PACKAGE NAME    
     ------------------                 ------------------------                     ----------------

           IN:                                      IN:
           ---                                      ---
              STO-SS =           0.0000                STO-SS =           0.0000     STORAGE         
              STO-SY = 14793224373.5554                STO-SY =    24171043.6813     STORAGE         
                 WEL =           0.0000                   WEL =           0.0000     WEL_0           
                 DRN =           0.0000                   DRN =           0.0000     DRN_0           
                 RCH = 36152823240.3858                   RCH =    34299202.3387     RCH_0           

            TOTAL IN = 50946047613.9411              TOTAL IN =    58470246.0199

          OUT:                                     OUT:
          ----                                     ----
              STO-SS =           0.0000                STO-SS =           0.0000     STORAGE         
              STO-SY = 13707576039.0917                STO-SY =     3890438.6140     STORAGE         
                 WEL =  8479949213.9794                   WEL =     9665769.2341     WEL_0           
                 DRN = 28758512260.9848                   DRN =    44913947.7669     DRN_0           
                 RCH =           0.0000                   RCH =           0.0000     RCH_0           

           TOTAL OUT = 50946037514.0559             TOTAL OUT =    58470155.6151

            IN - OUT =       10099.8852              IN - OUT =          90.4049

 PERCENT DISCREPANCY =           0.00     PERCENT DISCREPANCY =           0.00




         TIME SUMMARY AT END OF TIME STEP    1 IN STRESS PERIOD  816
                          TIME STEP LENGTH =    1.00000    
                        STRESS PERIOD TIME =    1.00000    
                     TOTAL SIMULATION TIME =    816.000    

end timestep


start timestep kper="817" kstp="1" mode="normal"


 OUTPUT CONTROL FOR STRESS PERIOD 817 IS REPEATED USING SETTINGS FROM A PREVIOUS STRESS PERIOD.


 STRESS PERIOD 817 IS TRANSIENT


 REUSING WELS FROM LAST STRESS PERIOD

 REUSING DRNS FROM LAST STRESS PERIOD

 REUSING RCHS FROM LAST STRESS PERIOD


  VOLUME BUDGET FOR ENTIRE MODEL AT END OF TIME STEP    1, STRESS PERIOD 817
  ---------------------------------------------------------------------------------------------------

     CUMULATIVE VOLUME      L**3       RATES FOR THIS TIME STEP      L**3/T          PACKAGE NAME    
     ------------------                 ------------------------                     ----------------

           IN:                                      IN:
           ---                                      ---
              STO-SS =           0.0000                STO-SS =           0.0000     STORAGE         
              STO-SY = 14807989494.3235                STO-SY =    14765120.7682     STORAGE         
                 WEL =           0.0000                   WEL =           0.0000     WEL_0           
                 DRN =           0.0000                   DRN =           0.0000     DRN_0           
                 RCH = 36197271607.9324                   RCH =    44448367.5466     RCH_0           

            TOTAL IN = 51005261102.2559              TOTAL IN =    59213488.3148

          OUT:                                     OUT:
          ----                                     ----
              STO-SS =           0.0000                STO-SS =           0.0000     STORAGE         
              STO-SY = 13712809877.3260                STO-SY =     5233838.2343     STORAGE         
                 WEL =  8485488988.9823                   WEL =     5539775.0029     WEL_0           
                 DRN = 28806952102.6386                   DRN =    48439841.6538     DRN_0           
                 RCH =           0.0000                   RCH =           0.0000     RCH_0           

           TOTAL OUT = 51005250968.9470             TOTAL OUT =    59213454.8910

            IN - OUT =       10133.3090              IN - OUT =          33.4238

 PERCENT DISCREPANCY =           0.00     PERCENT DISCREPANCY =           0.00




         TIME SUMMARY AT END OF TIME STEP    1 IN STRESS PERIOD  817
                          TIME STEP LENGTH =    1.00000    
                        STRESS PERIOD TIME =    1.00000    
                     TOTAL SIMULATION TIME =    817.000    

end timestep


start timestep kper="818" kstp="1" mode="normal"


 OUTPUT CONTROL FOR STRESS PERIOD 818 IS REPEATED USING SETTINGS FROM A PREVIOUS STRESS PERIOD.


 STRESS PERIOD 818 IS TRANSIENT


 REUSING WELS FROM LAST STRESS PERIOD

 REUSING DRNS FROM LAST STRESS PERIOD

 REUSING RCHS FROM LAST STRESS PERIOD


  VOLUME BUDGET FOR ENTIRE MODEL AT END OF TIME STEP    1, STRESS PERIOD 818
  ---------------------------------------------------------------------------------------------------

     CUMULATIVE VOLUME      L**3       RATES FOR THIS TIME STEP      L**3/T          PACKAGE NAME    
     ------------------                 ------------------------                     ----------------

           IN:                                      IN:
           ---                                      ---
              STO-SS =           0.0000                STO-SS =           0.0000     STORAGE         
              STO-SY = 14826394790.2232                STO-SY =    18405295.8997     STORAGE         
                 WEL =           0.0000                   WEL =           0.0000     WEL_0           
                 DRN =           0.0000                   DRN =           0.0000     DRN_0           
                 RCH = 36235544194.4942                   RCH =    38272586.5618     RCH_0           

            TOTAL IN = 51061938984.7174              TOTAL IN =    56677882.4615

          OUT:                                     OUT:
          ----                                     ----
              STO-SS =           0.0000                STO-SS =           0.0000     STORAGE         
              STO-SY = 13717388137.3883                STO-SY =     4578260.0622     STORAGE         
                 WEL =  8491024133.8639                   WEL =     5535144.8816     WEL_0           
                 DRN = 28853516570.3191                   DRN =    46564467.6804     DRN_0           
                 RCH =           0.0000                   RCH =           0.0000     RCH_0           

           TOTAL OUT = 51061928841.5713             TOTAL OUT =    56677872.6243

            IN - OUT =       10143.1462              IN - OUT =           9.8372

 PERCENT DISCREPANCY =           0.00     PERCENT DISCREPANCY =           0.00




         TIME SUMMARY AT END OF TIME STEP    1 IN STRESS PERIOD  818
                          TIME STEP LENGTH =    1.00000    
                        STRESS PERIOD TIME =    1.00000    
                     TOTAL SIMULATION TIME =    818.000    

end timestep


start timestep kper="819" kstp="1" mode="normal"


 OUTPUT CONTROL FOR STRESS PERIOD 819 IS REPEATED USING SETTINGS FROM A PREVIOUS STRESS PERIOD.


 STRESS PERIOD 819 IS TRANSIENT


 REUSING WELS FROM LAST STRESS PERIOD

 REUSING DRNS FROM LAST STRESS PERIOD

 REUSING RCHS FROM LAST STRESS PERIOD


  VOLUME BUDGET FOR ENTIRE MODEL AT END OF TIME STEP    1, STRESS PERIOD 819
  ---------------------------------------------------------------------------------------------------

     CUMULATIVE VOLUME      L**3       RATES FOR THIS TIME STEP      L**3/T          PACKAGE NAME    
     ------------------                 ------------------------                     ----------------

           IN:                                      IN:
           ---                                      ---
              STO-SS =           0.0000                STO-SS =           0.0000     STORAGE         
              STO-SY = 14848008434.1471                STO-SY =    21613643.9239     STORAGE         
                 WEL =           0.0000                   WEL =           0.0000     WEL_0           
                 DRN =           0.0000                   DRN =           0.0000     DRN_0           
                 RCH = 36265910079.6054                   RCH =    30365885.1111     RCH_0           

            TOTAL IN = 51113918513.7524              TOTAL IN =    51979529.0350

          OUT:                                     OUT:
          ----                                     ----
              STO-SS =           0.0000                STO-SS =           0.0000     STORAGE         
              STO-SY = 13720466573.4325                STO-SY =     3078436.0443     STORAGE         
                 WEL =  8496476689.1452                   WEL =     5452555.2813     WEL_0           
                 DRN = 28896965080.9397                   DRN =    43448510.6206     DRN_0           
                 RCH =           0.0000                   RCH =           0.0000     RCH_0           

           TOTAL OUT = 51113908343.5174             TOTAL OUT =    51979501.9462

            IN - OUT =       10170.2350              IN - OUT =          27.0888

 PERCENT DISCREPANCY =           0.00     PERCENT DISCREPANCY =           0.00




         TIME SUMMARY AT END OF TIME STEP    1 IN STRESS PERIOD  819
                          TIME STEP LENGTH =    1.00000    
                        STRESS PERIOD TIME =    1.00000    
                     TOTAL SIMULATION TIME =    819.000    

end timestep


start timestep kper="820" kstp="1" mode="normal"


 OUTPUT CONTROL FOR STRESS PERIOD 820 IS REPEATED USING SETTINGS FROM A PREVIOUS STRESS PERIOD.


 STRESS PERIOD 820 IS TRANSIENT


 REUSING WELS FROM LAST STRESS PERIOD

 REUSING DRNS FROM LAST STRESS PERIOD

 REUSING RCHS FROM LAST STRESS PERIOD


  VOLUME BUDGET FOR ENTIRE MODEL AT END OF TIME STEP    1, STRESS PERIOD 820
  ---------------------------------------------------------------------------------------------------

     CUMULATIVE VOLUME      L**3       RATES FOR THIS TIME STEP      L**3/T          PACKAGE NAME    
     ------------------                 ------------------------                     ----------------

           IN:                                      IN:
           ---                                      ---
              STO-SS =           0.0000                STO-SS =           0.0000     STORAGE         
              STO-SY = 14869746235.6001                STO-SY =    21737801.4531     STORAGE         
                 WEL =           0.0000                   WEL =           0.0000     WEL_0           
                 DRN =           0.0000                   DRN =           0.0000     DRN_0           
                 RCH = 36295606059.5253                   RCH =    29695979.9200     RCH_0           

            TOTAL IN = 51165352295.1255              TOTAL IN =    51433781.3730

          OUT:                                     OUT:
          ----                                     ----
              STO-SS =           0.0000                STO-SS =           0.0000     STORAGE         
              STO-SY = 13723546253.4496                STO-SY =     3079680.0171     STORAGE         
                 WEL =  8502781078.7633                   WEL =     6304389.6180     WEL_0           
                 DRN = 28939014767.0157                   DRN =    42049686.0761     DRN_0           
                 RCH =           0.0000                   RCH =           0.0000     RCH_0           

           TOTAL OUT = 51165342099.2286             TOTAL OUT =    51433755.7112

            IN - OUT =       10195.8969              IN - OUT =          25.6619

 PERCENT DISCREPANCY =           0.00     PERCENT DISCREPANCY =           0.00




         TIME SUMMARY AT END OF TIME STEP    1 IN STRESS PERIOD  820
                          TIME STEP LENGTH =    1.00000    
                        STRESS PERIOD TIME =    1.00000    
                     TOTAL SIMULATION TIME =    820.000    

end timestep


start timestep kper="821" kstp="1" mode="normal"


 OUTPUT CONTROL FOR STRESS PERIOD 821 IS REPEATED USING SETTINGS FROM A PREVIOUS STRESS PERIOD.


 STRESS PERIOD 821 IS TRANSIENT


 REUSING WELS FROM LAST STRESS PERIOD

 REUSING DRNS FROM LAST STRESS PERIOD

 REUSING RCHS FROM LAST STRESS PERIOD


  VOLUME BUDGET FOR ENTIRE MODEL AT END OF TIME STEP    1, STRESS PERIOD 821
  ---------------------------------------------------------------------------------------------------

     CUMULATIVE VOLUME      L**3       RATES FOR THIS TIME STEP      L**3/T          PACKAGE NAME    
     ------------------                 ------------------------                     ----------------

           IN:                                      IN:
           ---                                      ---
              STO-SS =           0.0000                STO-SS =           0.0000     STORAGE         
              STO-SY = 14897582211.3195                STO-SY =    27835975.7194     STORAGE         
                 WEL =           0.0000                   WEL =           0.0000     WEL_0           
                 DRN =           0.0000                   DRN =           0.0000     DRN_0           
                 RCH = 36326473838.3438                   RCH =    30867778.8185     RCH_0           

            TOTAL IN = 51224056049.6633              TOTAL IN =    58703754.5379

          OUT:                                     OUT:
          ----                                     ----
              STO-SS =           0.0000                STO-SS =           0.0000     STORAGE         
              STO-SY = 13726659762.3477                STO-SY =     3113508.8981     STORAGE         
                 WEL =  8517033450.8403                   WEL =    14252372.0770     WEL_0           
                 DRN = 28980352641.6495                   DRN =    41337874.6338     DRN_0           
                 RCH =           0.0000                   RCH =           0.0000     RCH_0           

           TOTAL OUT = 51224045854.8375             TOTAL OUT =    58703755.6089

            IN - OUT =       10194.8258              IN - OUT =          -1.0710

 PERCENT DISCREPANCY =           0.00     PERCENT DISCREPANCY =          -0.00




         TIME SUMMARY AT END OF TIME STEP    1 IN STRESS PERIOD  821
                          TIME STEP LENGTH =    1.00000    
                        STRESS PERIOD TIME =    1.00000    
                     TOTAL SIMULATION TIME =    821.000    

end timestep


start timestep kper="822" kstp="1" mode="normal"


 OUTPUT CONTROL FOR STRESS PERIOD 822 IS REPEATED USING SETTINGS FROM A PREVIOUS STRESS PERIOD.


 STRESS PERIOD 822 IS TRANSIENT


 REUSING WELS FROM LAST STRESS PERIOD

 REUSING DRNS FROM LAST STRESS PERIOD

 REUSING RCHS FROM LAST STRESS PERIOD


  VOLUME BUDGET FOR ENTIRE MODEL AT END OF TIME STEP    1, STRESS PERIOD 822
  ---------------------------------------------------------------------------------------------------

     CUMULATIVE VOLUME      L**3       RATES FOR THIS TIME STEP      L**3/T          PACKAGE NAME    
     ------------------                 ------------------------                     ----------------

           IN:                                      IN:
           ---                                      ---
              STO-SS =           0.0000                STO-SS =           0.0000     STORAGE         
              STO-SY = 14920528350.0081                STO-SY =    22946138.6886     STORAGE         
                 WEL =           0.0000                   WEL =           0.0000     WEL_0           
                 DRN =           0.0000                   DRN =           0.0000     DRN_0           
                 RCH = 36354227766.0425                   RCH =    27753927.6986     RCH_0           

            TOTAL IN = 51274756116.0505              TOTAL IN =    50700066.3872

          OUT:                                     OUT:
          ----                                     ----
              STO-SS =           0.0000                STO-SS =           0.0000     STORAGE         
              STO-SY = 13729524147.0048                STO-SY =     2864384.6571     STORAGE         
                 WEL =  8524767796.2314                   WEL =     7734345.3911     WEL_0           
                 DRN = 29020453983.9800                   DRN =    40101342.3304     DRN_0           
                 RCH =           0.0000                   RCH =           0.0000     RCH_0           

           TOTAL OUT = 51274745927.2161             TOTAL OUT =    50700072.3786

            IN - OUT =       10188.8344              IN - OUT =          -5.9914

 PERCENT DISCREPANCY =           0.00     PERCENT DISCREPANCY =          -0.00




         TIME SUMMARY AT END OF TIME STEP    1 IN STRESS PERIOD  822
                          TIME STEP LENGTH =    1.00000    
                        STRESS PERIOD TIME =    1.00000    
                     TOTAL SIMULATION TIME =    822.000    

end timestep


start timestep kper="823" kstp="1" mode="normal"


 OUTPUT CONTROL FOR STRESS PERIOD 823 IS REPEATED USING SETTINGS FROM A PREVIOUS STRESS PERIOD.


 STRESS PERIOD 823 IS TRANSIENT


 REUSING WELS FROM LAST STRESS PERIOD

 REUSING DRNS FROM LAST STRESS PERIOD

 REUSING RCHS FROM LAST STRESS PERIOD


  VOLUME BUDGET FOR ENTIRE MODEL AT END OF TIME STEP    1, STRESS PERIOD 823
  ---------------------------------------------------------------------------------------------------

     CUMULATIVE VOLUME      L**3       RATES FOR THIS TIME STEP      L**3/T          PACKAGE NAME    
     ------------------                 ------------------------                     ----------------

           IN:                                      IN:
           ---                                      ---
              STO-SS =           0.0000                STO-SS =           0.0000     STORAGE         
              STO-SY = 14952615823.0378                STO-SY =    32087473.0298     STORAGE         
                 WEL =           0.0000                   WEL =           0.0000     WEL_0           
                 DRN =           0.0000                   DRN =           0.0000     DRN_0           
                 RCH = 36388320684.1548                   RCH =    34092918.1123     RCH_0           

            TOTAL IN = 51340936507.1927              TOTAL IN =    66180391.1421

          OUT:                                     OUT:
          ----                                     ----
              STO-SS =           0.0000                STO-SS =           0.0000     STORAGE         
              STO-SY = 13735007956.8344                STO-SY =     5483809.8296     STORAGE         
                 WEL =  8545248227.0147                   WEL =    20480430.7833     WEL_0           
                 DRN = 29060670122.2992                   DRN =    40216138.3193     DRN_0           
                 RCH =           0.0000                   RCH =           0.0000     RCH_0           

           TOTAL OUT = 51340926306.1483             TOTAL OUT =    66180378.9322

            IN - OUT =       10201.0444              IN - OUT =          12.2099

 PERCENT DISCREPANCY =           0.00     PERCENT DISCREPANCY =           0.00




         TIME SUMMARY AT END OF TIME STEP    1 IN STRESS PERIOD  823
                          TIME STEP LENGTH =    1.00000    
                        STRESS PERIOD TIME =    1.00000    
                     TOTAL SIMULATION TIME =    823.000    

end timestep


start timestep kper="824" kstp="1" mode="normal"


 OUTPUT CONTROL FOR STRESS PERIOD 824 IS REPEATED USING SETTINGS FROM A PREVIOUS STRESS PERIOD.


 STRESS PERIOD 824 IS TRANSIENT


 REUSING WELS FROM LAST STRESS PERIOD

 REUSING DRNS FROM LAST STRESS PERIOD

 REUSING RCHS FROM LAST STRESS PERIOD


  VOLUME BUDGET FOR ENTIRE MODEL AT END OF TIME STEP    1, STRESS PERIOD 824
  ---------------------------------------------------------------------------------------------------

     CUMULATIVE VOLUME      L**3       RATES FOR THIS TIME STEP      L**3/T          PACKAGE NAME    
     ------------------                 ------------------------                     ----------------

           IN:                                      IN:
           ---                                      ---
              STO-SS =           0.0000                STO-SS =           0.0000     STORAGE         
              STO-SY = 14982004922.0017                STO-SY =    29389098.9639     STORAGE         
                 WEL =           0.0000                   WEL =           0.0000     WEL_0           
                 DRN =           0.0000                   DRN =           0.0000     DRN_0           
                 RCH = 36424704597.4516                   RCH =    36383913.2968     RCH_0           

            TOTAL IN = 51406709519.4533              TOTAL IN =    65773012.2607

          OUT:                                     OUT:
          ----                                     ----
              STO-SS =           0.0000                STO-SS =           0.0000     STORAGE         
              STO-SY = 13740810486.9255                STO-SY =     5802530.0911     STORAGE         
                 WEL =  8565377024.3677                   WEL =    20128797.3529     WEL_0           
                 DRN = 29100511773.0293                   DRN =    39841650.7301     DRN_0           
                 RCH =           0.0000                   RCH =           0.0000     RCH_0           

           TOTAL OUT = 51406699284.3224             TOTAL OUT =    65772978.1741

            IN - OUT =       10235.1309              IN - OUT =          34.0866

 PERCENT DISCREPANCY =           0.00     PERCENT DISCREPANCY =           0.00




         TIME SUMMARY AT END OF TIME STEP    1 IN STRESS PERIOD  824
                          TIME STEP LENGTH =    1.00000    
                        STRESS PERIOD TIME =    1.00000    
                     TOTAL SIMULATION TIME =    824.000    

end timestep


start timestep kper="825" kstp="1" mode="normal"


 OUTPUT CONTROL FOR STRESS PERIOD 825 IS REPEATED USING SETTINGS FROM A PREVIOUS STRESS PERIOD.


 STRESS PERIOD 825 IS TRANSIENT


 REUSING WELS FROM LAST STRESS PERIOD

 REUSING DRNS FROM LAST STRESS PERIOD

 REUSING RCHS FROM LAST STRESS PERIOD


  VOLUME BUDGET FOR ENTIRE MODEL AT END OF TIME STEP    1, STRESS PERIOD 825
  ---------------------------------------------------------------------------------------------------

     CUMULATIVE VOLUME      L**3       RATES FOR THIS TIME STEP      L**3/T          PACKAGE NAME    
     ------------------                 ------------------------                     ----------------

           IN:                                      IN:
           ---                                      ---
              STO-SS =           0.0000                STO-SS =           0.0000     STORAGE         
              STO-SY = 15008845483.2233                STO-SY =    26840561.2216     STORAGE         
                 WEL =           0.0000                   WEL =           0.0000     WEL_0           
                 DRN =           0.0000                   DRN =           0.0000     DRN_0           
                 RCH = 36451199109.0966                   RCH =    26494511.6450     RCH_0           

            TOTAL IN = 51460044592.3199              TOTAL IN =    53335072.8666

          OUT:                                     OUT:
          ----                                     ----
              STO-SS =           0.0000                STO-SS =           0.0000     STORAGE         
              STO-SY = 13744094068.0076                STO-SY =     3283581.0821     STORAGE         
                 WEL =  8576970803.1013                   WEL =    11593778.7336     WEL_0           
                 DRN = 29138969433.8762                   DRN =    38457660.8469     DRN_0           
                 RCH =           0.0000                   RCH =           0.0000     RCH_0           

           TOTAL OUT = 51460034304.9850             TOTAL OUT =    53335020.6626

            IN - OUT =       10287.3349              IN - OUT =          52.2039

 PERCENT DISCREPANCY =           0.00     PERCENT DISCREPANCY =           0.00




         TIME SUMMARY AT END OF TIME STEP    1 IN STRESS PERIOD  825
                          TIME STEP LENGTH =    1.00000    
                        STRESS PERIOD TIME =    1.00000    
                     TOTAL SIMULATION TIME =    825.000    

end timestep


start timestep kper="826" kstp="1" mode="normal"


 OUTPUT CONTROL FOR STRESS PERIOD 826 IS REPEATED USING SETTINGS FROM A PREVIOUS STRESS PERIOD.


 STRESS PERIOD 826 IS TRANSIENT


 REUSING WELS FROM LAST STRESS PERIOD

 REUSING DRNS FROM LAST STRESS PERIOD

 REUSING RCHS FROM LAST STRESS PERIOD


  VOLUME BUDGET FOR ENTIRE MODEL AT END OF TIME STEP    1, STRESS PERIOD 826
  ---------------------------------------------------------------------------------------------------

     CUMULATIVE VOLUME      L**3       RATES FOR THIS TIME STEP      L**3/T          PACKAGE NAME    
     ------------------                 ------------------------                     ----------------

           IN:                                      IN:
           ---                                      ---
              STO-SS =           0.0000                STO-SS =           0.0000     STORAGE         
              STO-SY = 15040550128.0314                STO-SY =    31704644.8081     STORAGE         
                 WEL =           0.0000                   WEL =           0.0000     WEL_0           
                 DRN =           0.0000                   DRN =           0.0000     DRN_0           
                 RCH = 36480476973.2100                   RCH =    29277864.1134     RCH_0           

            TOTAL IN = 51521027101.2414              TOTAL IN =    60982508.9215

          OUT:                                     OUT:
          ----                                     ----
              STO-SS =           0.0000                STO-SS =           0.0000     STORAGE         
              STO-SY = 13748310237.9242                STO-SY =     4216169.9166     STORAGE         
                 WEL =  8596420076.7676                   WEL =    19449273.6663     WEL_0           
                 DRN = 29176286496.7741                   DRN =    37317062.8980     DRN_0           
                 RCH =           0.0000                   RCH =           0.0000     RCH_0           

           TOTAL OUT = 51521016811.4659             TOTAL OUT =    60982506.4809

            IN - OUT =       10289.7755              IN - OUT =           2.4406

 PERCENT DISCREPANCY =           0.00     PERCENT DISCREPANCY =           0.00




         TIME SUMMARY AT END OF TIME STEP    1 IN STRESS PERIOD  826
                          TIME STEP LENGTH =    1.00000    
                        STRESS PERIOD TIME =    1.00000    
                     TOTAL SIMULATION TIME =    826.000    

end timestep


start timestep kper="827" kstp="1" mode="normal"


 OUTPUT CONTROL FOR STRESS PERIOD 827 IS REPEATED USING SETTINGS FROM A PREVIOUS STRESS PERIOD.


 STRESS PERIOD 827 IS TRANSIENT


 REUSING WELS FROM LAST STRESS PERIOD

 REUSING DRNS FROM LAST STRESS PERIOD

 REUSING RCHS FROM LAST STRESS PERIOD


  VOLUME BUDGET FOR ENTIRE MODEL AT END OF TIME STEP    1, STRESS PERIOD 827
  ---------------------------------------------------------------------------------------------------

     CUMULATIVE VOLUME      L**3       RATES FOR THIS TIME STEP      L**3/T          PACKAGE NAME    
     ------------------                 ------------------------                     ----------------

           IN:                                      IN:
           ---                                      ---
              STO-SS =           0.0000                STO-SS =           0.0000     STORAGE         
              STO-SY = 15065820473.5171                STO-SY =    25270345.4857     STORAGE         
                 WEL =           0.0000                   WEL =           0.0000     WEL_0           
                 DRN =           0.0000                   DRN =           0.0000     DRN_0           
                 RCH = 36506785037.6334                   RCH =    26308064.4234     RCH_0           

            TOTAL IN = 51572605511.1505              TOTAL IN =    51578409.9091

          OUT:                                     OUT:
          ----                                     ----
              STO-SS =           0.0000                STO-SS =           0.0000     STORAGE         
              STO-SY = 13751245411.9246                STO-SY =     2935174.0004     STORAGE         
                 WEL =  8607633300.8782                   WEL =    11213224.1106     WEL_0           
                 DRN = 29213716493.0871                   DRN =    37429996.3129     DRN_0           
                 RCH =           0.0000                   RCH =           0.0000     RCH_0           

           TOTAL OUT = 51572595205.8899             TOTAL OUT =    51578394.4240

            IN - OUT =       10305.2606              IN - OUT =          15.4851

 PERCENT DISCREPANCY =           0.00     PERCENT DISCREPANCY =           0.00




         TIME SUMMARY AT END OF TIME STEP    1 IN STRESS PERIOD  827
                          TIME STEP LENGTH =    1.00000    
                        STRESS PERIOD TIME =    1.00000    
                     TOTAL SIMULATION TIME =    827.000    

end timestep


start timestep kper="828" kstp="1" mode="normal"


 OUTPUT CONTROL FOR STRESS PERIOD 828 IS REPEATED USING SETTINGS FROM A PREVIOUS STRESS PERIOD.


 STRESS PERIOD 828 IS TRANSIENT


 REUSING WELS FROM LAST STRESS PERIOD

 REUSING DRNS FROM LAST STRESS PERIOD

 REUSING RCHS FROM LAST STRESS PERIOD


  VOLUME BUDGET FOR ENTIRE MODEL AT END OF TIME STEP    1, STRESS PERIOD 828
  ---------------------------------------------------------------------------------------------------

     CUMULATIVE VOLUME      L**3       RATES FOR THIS TIME STEP      L**3/T          PACKAGE NAME    
     ------------------                 ------------------------                     ----------------

           IN:                                      IN:
           ---                                      ---
              STO-SS =           0.0000                STO-SS =           0.0000     STORAGE         
              STO-SY = 15094202104.5081                STO-SY =    28381630.9910     STORAGE         
                 WEL =           0.0000                   WEL =           0.0000     WEL_0           
                 DRN =           0.0000                   DRN =           0.0000     DRN_0           
                 RCH = 36541997149.9687                   RCH =    35212112.3353     RCH_0           

            TOTAL IN = 51636199254.4769              TOTAL IN =    63593743.3263

          OUT:                                     OUT:
          ----                                     ----
              STO-SS =           0.0000                STO-SS =           0.0000     STORAGE         
              STO-SY = 13756040908.0754                STO-SY =     4795496.1508     STORAGE         
                 WEL =  8628471216.6994                   WEL =    20837915.8212     WEL_0           
                 DRN = 29251676823.2517                   DRN =    37960330.1647     DRN_0           
                 RCH =           0.0000                   RCH =           0.0000     RCH_0           

           TOTAL OUT = 51636188948.0265             TOTAL OUT =    63593742.1366

            IN - OUT =       10306.4503              IN - OUT =           1.1897

 PERCENT DISCREPANCY =           0.00     PERCENT DISCREPANCY =           0.00




         TIME SUMMARY AT END OF TIME STEP    1 IN STRESS PERIOD  828
                          TIME STEP LENGTH =    1.00000    
                        STRESS PERIOD TIME =    1.00000    
                     TOTAL SIMULATION TIME =    828.000    

end timestep


start timestep kper="829" kstp="1" mode="normal"


 OUTPUT CONTROL FOR STRESS PERIOD 829 IS REPEATED USING SETTINGS FROM A PREVIOUS STRESS PERIOD.


 STRESS PERIOD 829 IS TRANSIENT


 REUSING WELS FROM LAST STRESS PERIOD

 REUSING DRNS FROM LAST STRESS PERIOD

 REUSING RCHS FROM LAST STRESS PERIOD


  VOLUME BUDGET FOR ENTIRE MODEL AT END OF TIME STEP    1, STRESS PERIOD 829
  ---------------------------------------------------------------------------------------------------

     CUMULATIVE VOLUME      L**3       RATES FOR THIS TIME STEP      L**3/T          PACKAGE NAME    
     ------------------                 ------------------------                     ----------------

           IN:                                      IN:
           ---                                      ---
              STO-SS =           0.0000                STO-SS =           0.0000     STORAGE         
              STO-SY = 15119035624.7212                STO-SY =    24833520.2130     STORAGE         
                 WEL =           0.0000                   WEL =           0.0000     WEL_0           
                 DRN =           0.0000                   DRN =           0.0000     DRN_0           
                 RCH = 36563226939.3967                   RCH =    21229789.4279     RCH_0           

            TOTAL IN = 51682262564.1178              TOTAL IN =    46063309.6410

          OUT:                                     OUT:
          ----                                     ----
              STO-SS =           0.0000                STO-SS =           0.0000     STORAGE         
              STO-SY = 13758299520.7670                STO-SY =     2258612.6916     STORAGE         
                 WEL =  8636670385.5340                   WEL =     8199168.8347     WEL_0           
                 DRN = 29287282320.9456                   DRN =    35605497.6938     DRN_0           
                 RCH =           0.0000                   RCH =           0.0000     RCH_0           

           TOTAL OUT = 51682252227.2466             TOTAL OUT =    46063279.2201

            IN - OUT =       10336.8712              IN - OUT =          30.4209

 PERCENT DISCREPANCY =           0.00     PERCENT DISCREPANCY =           0.00




         TIME SUMMARY AT END OF TIME STEP    1 IN STRESS PERIOD  829
                          TIME STEP LENGTH =    1.00000    
                        STRESS PERIOD TIME =    1.00000    
                     TOTAL SIMULATION TIME =    829.000    

end timestep


start timestep kper="830" kstp="1" mode="normal"


 OUTPUT CONTROL FOR STRESS PERIOD 830 IS REPEATED USING SETTINGS FROM A PREVIOUS STRESS PERIOD.


 STRESS PERIOD 830 IS TRANSIENT


 REUSING WELS FROM LAST STRESS PERIOD

 REUSING DRNS FROM LAST STRESS PERIOD

 REUSING RCHS FROM LAST STRESS PERIOD


  VOLUME BUDGET FOR ENTIRE MODEL AT END OF TIME STEP    1, STRESS PERIOD 830
  ---------------------------------------------------------------------------------------------------

     CUMULATIVE VOLUME      L**3       RATES FOR THIS TIME STEP      L**3/T          PACKAGE NAME    
     ------------------                 ------------------------                     ----------------

           IN:                                      IN:
           ---                                      ---
              STO-SS =           0.0000                STO-SS =           0.0000     STORAGE         
              STO-SY = 15145807455.6416                STO-SY =    26771830.9204     STORAGE         
                 WEL =           0.0000                   WEL =           0.0000     WEL_0           
                 DRN =           0.0000                   DRN =           0.0000     DRN_0           
                 RCH = 36586534619.9991                   RCH =    23307680.6025     RCH_0           

            TOTAL IN = 51732342075.6407              TOTAL IN =    50079511.5229

          OUT:                                     OUT:
          ----                                     ----
              STO-SS =           0.0000                STO-SS =           0.0000     STORAGE         
              STO-SY = 13761237682.7352                STO-SY =     2938161.9683     STORAGE         
                 WEL =  8649235272.0789                   WEL =    12564886.5449     WEL_0           
                 DRN = 29321858792.2159                   DRN =    34576471.2704     DRN_0           
                 RCH =           0.0000                   RCH =           0.0000     RCH_0           

           TOTAL OUT = 51732331747.0301             TOTAL OUT =    50079519.7835

            IN - OUT =       10328.6107              IN - OUT =          -8.2606

 PERCENT DISCREPANCY =           0.00     PERCENT DISCREPANCY =          -0.00




         TIME SUMMARY AT END OF TIME STEP    1 IN STRESS PERIOD  830
                          TIME STEP LENGTH =    1.00000    
                        STRESS PERIOD TIME =    1.00000    
                     TOTAL SIMULATION TIME =    830.000    

end timestep


start timestep kper="831" kstp="1" mode="normal"


 OUTPUT CONTROL FOR STRESS PERIOD 831 IS REPEATED USING SETTINGS FROM A PREVIOUS STRESS PERIOD.


 STRESS PERIOD 831 IS TRANSIENT


 REUSING WELS FROM LAST STRESS PERIOD

 REUSING DRNS FROM LAST STRESS PERIOD

 REUSING RCHS FROM LAST STRESS PERIOD


  VOLUME BUDGET FOR ENTIRE MODEL AT END OF TIME STEP    1, STRESS PERIOD 831
  ---------------------------------------------------------------------------------------------------

     CUMULATIVE VOLUME      L**3       RATES FOR THIS TIME STEP      L**3/T          PACKAGE NAME    
     ------------------                 ------------------------                     ----------------

           IN:                                      IN:
           ---                                      ---
              STO-SS =           0.0000                STO-SS =           0.0000     STORAGE         
              STO-SY = 15149466441.3767                STO-SY =     3658985.7351     STORAGE         
                 WEL =           0.0000                   WEL =           0.0000     WEL_0           
                 DRN =           0.0000                   DRN =           0.0000     DRN_0           
                 RCH = 36701819414.3962                   RCH =   115284794.3971     RCH_0           

            TOTAL IN = 51851285855.7729              TOTAL IN =   118943780.1321

          OUT:                                     OUT:
          ----                                     ----
              STO-SS =           0.0000                STO-SS =           0.0000     STORAGE         
              STO-SY = 13820627215.0371                STO-SY =    59389532.3019     STORAGE         
                 WEL =  8653692228.1907                   WEL =     4456956.1118     WEL_0           
                 DRN = 29376956084.2246                   DRN =    55097292.0087     DRN_0           
                 RCH =           0.0000                   RCH =           0.0000     RCH_0           

           TOTAL OUT = 51851275527.4525             TOTAL OUT =   118943780.4224

            IN - OUT =       10328.3204              IN - OUT =          -0.2903

 PERCENT DISCREPANCY =           0.00     PERCENT DISCREPANCY =          -0.00




         TIME SUMMARY AT END OF TIME STEP    1 IN STRESS PERIOD  831
                          TIME STEP LENGTH =    1.00000    
                        STRESS PERIOD TIME =    1.00000    
                     TOTAL SIMULATION TIME =    831.000    

end timestep


start timestep kper="832" kstp="1" mode="normal"


 OUTPUT CONTROL FOR STRESS PERIOD 832 IS REPEATED USING SETTINGS FROM A PREVIOUS STRESS PERIOD.


 STRESS PERIOD 832 IS TRANSIENT


 REUSING WELS FROM LAST STRESS PERIOD

 REUSING DRNS FROM LAST STRESS PERIOD

 REUSING RCHS FROM LAST STRESS PERIOD


  VOLUME BUDGET FOR ENTIRE MODEL AT END OF TIME STEP    1, STRESS PERIOD 832
  ---------------------------------------------------------------------------------------------------

     CUMULATIVE VOLUME      L**3       RATES FOR THIS TIME STEP      L**3/T          PACKAGE NAME    
     ------------------                 ------------------------                     ----------------

           IN:                                      IN:
           ---                                      ---
              STO-SS =           0.0000                STO-SS =           0.0000     STORAGE         
              STO-SY = 15153844468.6490                STO-SY =     4378027.2724     STORAGE         
                 WEL =           0.0000                   WEL =           0.0000     WEL_0           
                 DRN =           0.0000                   DRN =           0.0000     DRN_0           
                 RCH = 36824480033.2521                   RCH =   122660618.8559     RCH_0           

            TOTAL IN = 51978324501.9011              TOTAL IN =   127038646.1283

          OUT:                                     OUT:
          ----                                     ----
              STO-SS =           0.0000                STO-SS =           0.0000     STORAGE         
              STO-SY = 13887729437.5000                STO-SY =    67102222.4629     STORAGE         
                 WEL =  8657758771.1413                   WEL =     4066542.9505     WEL_0           
                 DRN = 29432825964.8184                   DRN =    55869880.5938     DRN_0           
                 RCH =           0.0000                   RCH =           0.0000     RCH_0           

           TOTAL OUT = 51978314173.4597             TOTAL OUT =   127038646.0072

            IN - OUT =       10328.4415              IN - OUT =           0.1211

 PERCENT DISCREPANCY =           0.00     PERCENT DISCREPANCY =           0.00




         TIME SUMMARY AT END OF TIME STEP    1 IN STRESS PERIOD  832
                          TIME STEP LENGTH =    1.00000    
                        STRESS PERIOD TIME =    1.00000    
                     TOTAL SIMULATION TIME =    832.000    

end timestep


start timestep kper="833" kstp="1" mode="normal"


 OUTPUT CONTROL FOR STRESS PERIOD 833 IS REPEATED USING SETTINGS FROM A PREVIOUS STRESS PERIOD.


 STRESS PERIOD 833 IS TRANSIENT


 REUSING WELS FROM LAST STRESS PERIOD

 REUSING DRNS FROM LAST STRESS PERIOD

 REUSING RCHS FROM LAST STRESS PERIOD


  VOLUME BUDGET FOR ENTIRE MODEL AT END OF TIME STEP    1, STRESS PERIOD 833
  ---------------------------------------------------------------------------------------------------

     CUMULATIVE VOLUME      L**3       RATES FOR THIS TIME STEP      L**3/T          PACKAGE NAME    
     ------------------                 ------------------------                     ----------------

           IN:                                      IN:
           ---                                      ---
              STO-SS =           0.0000                STO-SS =           0.0000     STORAGE         
              STO-SY = 15156425998.2971                STO-SY =     2581529.6481     STORAGE         
                 WEL =           0.0000                   WEL =           0.0000     WEL_0           
                 DRN =           0.0000                   DRN =           0.0000     DRN_0           
                 RCH = 37239992572.2041                   RCH =   415512538.9520     RCH_0           

            TOTAL IN = 52396418570.5012              TOTAL IN =   418094068.6001

          OUT:                                     OUT:
          ----                                     ----
              STO-SS =           0.0000                STO-SS =           0.0000     STORAGE         
              STO-SY = 14152852680.0868                STO-SY =   265123242.5868     STORAGE         
                 WEL =  8659971688.8991                   WEL =     2212917.7578     WEL_0           
                 DRN = 29583583872.9743                   DRN =   150757908.1559     DRN_0           
                 RCH =           0.0000                   RCH =           0.0000     RCH_0           

           TOTAL OUT = 52396408241.9602             TOTAL OUT =   418094068.5005

            IN - OUT =       10328.5410              IN - OUT =       9.9546E-02

 PERCENT DISCREPANCY =           0.00     PERCENT DISCREPANCY =           0.00




         TIME SUMMARY AT END OF TIME STEP    1 IN STRESS PERIOD  833
                          TIME STEP LENGTH =    1.00000    
                        STRESS PERIOD TIME =    1.00000    
                     TOTAL SIMULATION TIME =    833.000    

end timestep


start timestep kper="834" kstp="1" mode="normal"


 OUTPUT CONTROL FOR STRESS PERIOD 834 IS REPEATED USING SETTINGS FROM A PREVIOUS STRESS PERIOD.


 STRESS PERIOD 834 IS TRANSIENT


 REUSING WELS FROM LAST STRESS PERIOD

 REUSING DRNS FROM LAST STRESS PERIOD

 REUSING RCHS FROM LAST STRESS PERIOD


  VOLUME BUDGET FOR ENTIRE MODEL AT END OF TIME STEP    1, STRESS PERIOD 834
  ---------------------------------------------------------------------------------------------------

     CUMULATIVE VOLUME      L**3       RATES FOR THIS TIME STEP      L**3/T          PACKAGE NAME    
     ------------------                 ------------------------                     ----------------

           IN:                                      IN:
           ---                                      ---
              STO-SS =           0.0000                STO-SS =           0.0000     STORAGE         
              STO-SY = 15163862879.5224                STO-SY =     7436881.2253     STORAGE         
                 WEL =           0.0000                   WEL =           0.0000     WEL_0           
                 DRN =           0.0000                   DRN =           0.0000     DRN_0           
                 RCH = 37407041092.2553                   RCH =   167048520.0512     RCH_0           

            TOTAL IN = 52570903971.7777              TOTAL IN =   174485401.2765

          OUT:                                     OUT:
          ----                                     ----
              STO-SS =           0.0000                STO-SS =           0.0000     STORAGE         
              STO-SY = 14249527537.3097                STO-SY =    96674857.2230     STORAGE         
                 WEL =  8662491682.5463                   WEL =     2519993.6472     WEL_0           
                 DRN = 29658874421.0857                   DRN =    75290548.1114     DRN_0           
                 RCH =           0.0000                   RCH =           0.0000     RCH_0           

           TOTAL OUT = 52570893640.9417             TOTAL OUT =   174485398.9815

            IN - OUT =       10330.8359              IN - OUT =           2.2949

 PERCENT DISCREPANCY =           0.00     PERCENT DISCREPANCY =           0.00




         TIME SUMMARY AT END OF TIME STEP    1 IN STRESS PERIOD  834
                          TIME STEP LENGTH =    1.00000    
                        STRESS PERIOD TIME =    1.00000    
                     TOTAL SIMULATION TIME =    834.000    

end timestep


start timestep kper="835" kstp="1" mode="normal"


 OUTPUT CONTROL FOR STRESS PERIOD 835 IS REPEATED USING SETTINGS FROM A PREVIOUS STRESS PERIOD.


 STRESS PERIOD 835 IS TRANSIENT


 REUSING WELS FROM LAST STRESS PERIOD

 REUSING DRNS FROM LAST STRESS PERIOD

 REUSING RCHS FROM LAST STRESS PERIOD


  VOLUME BUDGET FOR ENTIRE MODEL AT END OF TIME STEP    1, STRESS PERIOD 835
  ---------------------------------------------------------------------------------------------------

     CUMULATIVE VOLUME      L**3       RATES FOR THIS TIME STEP      L**3/T          PACKAGE NAME    
     ------------------                 ------------------------                     ----------------

           IN:                                      IN:
           ---                                      ---
              STO-SS =           0.0000                STO-SS =           0.0000     STORAGE         
              STO-SY = 15168375753.1076                STO-SY =     4512873.5852     STORAGE         
                 WEL =           0.0000                   WEL =           0.0000     WEL_0           
                 DRN =           0.0000                   DRN =           0.0000     DRN_0           
                 RCH = 37539016324.7068                   RCH =   131975232.4515     RCH_0           

            TOTAL IN = 52707392077.8144              TOTAL IN =   136488106.0367

          OUT:                                     OUT:
          ----                                     ----
              STO-SS =           0.0000                STO-SS =           0.0000     STORAGE         
              STO-SY = 14304918880.6589                STO-SY =    55391343.3492     STORAGE         
                 WEL =  8665226530.5111                   WEL =     2734847.9648     WEL_0           
                 DRN = 29737236321.7235                   DRN =    78361900.6378     DRN_0           
                 RCH =           0.0000                   RCH =           0.0000     RCH_0           

           TOTAL OUT = 52707381732.8936             TOTAL OUT =   136488091.9518

            IN - OUT =       10344.9208              IN - OUT =          14.0849

 PERCENT DISCREPANCY =           0.00     PERCENT DISCREPANCY =           0.00




         TIME SUMMARY AT END OF TIME STEP    1 IN STRESS PERIOD  835
                          TIME STEP LENGTH =    1.00000    
                        STRESS PERIOD TIME =    1.00000    
                     TOTAL SIMULATION TIME =    835.000    

end timestep


start timestep kper="836" kstp="1" mode="normal"


 OUTPUT CONTROL FOR STRESS PERIOD 836 IS REPEATED USING SETTINGS FROM A PREVIOUS STRESS PERIOD.


 STRESS PERIOD 836 IS TRANSIENT


 REUSING WELS FROM LAST STRESS PERIOD

 REUSING DRNS FROM LAST STRESS PERIOD

 REUSING RCHS FROM LAST STRESS PERIOD


  VOLUME BUDGET FOR ENTIRE MODEL AT END OF TIME STEP    1, STRESS PERIOD 836
  ---------------------------------------------------------------------------------------------------

     CUMULATIVE VOLUME      L**3       RATES FOR THIS TIME STEP      L**3/T          PACKAGE NAME    
     ------------------                 ------------------------                     ----------------

           IN:                                      IN:
           ---                                      ---
              STO-SS =           0.0000                STO-SS =           0.0000     STORAGE         
              STO-SY = 15174936675.4665                STO-SY =     6560922.3588     STORAGE         
                 WEL =           0.0000                   WEL =           0.0000     WEL_0           
                 DRN =           0.0000                   DRN =           0.0000     DRN_0           
                 RCH = 37768329448.1873                   RCH =   229313123.4805     RCH_0           

            TOTAL IN = 52943266123.6537              TOTAL IN =   235874045.8393

          OUT:                                     OUT:
          ----                                     ----
              STO-SS =           0.0000                STO-SS =           0.0000     STORAGE         
              STO-SY = 14444574056.0980                STO-SY =   139655175.4390     STORAGE         
                 WEL =  8667684482.8732                   WEL =     2457952.3621     WEL_0           
                 DRN = 29830997237.4515                   DRN =    93760915.7281     DRN_0           
                 RCH =           0.0000                   RCH =           0.0000     RCH_0           

           TOTAL OUT = 52943255776.4227             TOTAL OUT =   235874043.5291

            IN - OUT =       10347.2310              IN - OUT =           2.3102

 PERCENT DISCREPANCY =           0.00     PERCENT DISCREPANCY =           0.00




         TIME SUMMARY AT END OF TIME STEP    1 IN STRESS PERIOD  836
                          TIME STEP LENGTH =    1.00000    
                        STRESS PERIOD TIME =    1.00000    
                     TOTAL SIMULATION TIME =    836.000    

end timestep


start timestep kper="837" kstp="1" mode="normal"


 OUTPUT CONTROL FOR STRESS PERIOD 837 IS REPEATED USING SETTINGS FROM A PREVIOUS STRESS PERIOD.


 STRESS PERIOD 837 IS TRANSIENT


 REUSING WELS FROM LAST STRESS PERIOD

 REUSING DRNS FROM LAST STRESS PERIOD

 REUSING RCHS FROM LAST STRESS PERIOD


  VOLUME BUDGET FOR ENTIRE MODEL AT END OF TIME STEP    1, STRESS PERIOD 837
  ---------------------------------------------------------------------------------------------------

     CUMULATIVE VOLUME      L**3       RATES FOR THIS TIME STEP      L**3/T          PACKAGE NAME    
     ------------------                 ------------------------                     ----------------

           IN:                                      IN:
           ---                                      ---
              STO-SS =           0.0000                STO-SS =           0.0000     STORAGE         
              STO-SY = 15180983963.2769                STO-SY =     6047287.8105     STORAGE         
                 WEL =           0.0000                   WEL =           0.0000     WEL_0           
                 DRN =           0.0000                   DRN =           0.0000     DRN_0           
                 RCH = 38009754645.9472                   RCH =   241425197.7599     RCH_0           

            TOTAL IN = 53190738609.2241              TOTAL IN =   247472485.5704

          OUT:                                     OUT:
          ----                                     ----
              STO-SS =           0.0000                STO-SS =           0.0000     STORAGE         
              STO-SY = 14569168545.9939                STO-SY =   124594489.8959     STORAGE         
                 WEL =  8670156460.5038                   WEL =     2471977.6306     WEL_0           
                 DRN = 29951403245.0304                   DRN =   120406007.5788     DRN_0           
                 RCH =           0.0000                   RCH =           0.0000     RCH_0           

           TOTAL OUT = 53190728251.5280             TOTAL OUT =   247472475.1054

            IN - OUT =       10357.6961              IN - OUT =          10.4650

 PERCENT DISCREPANCY =           0.00     PERCENT DISCREPANCY =           0.00




         TIME SUMMARY AT END OF TIME STEP    1 IN STRESS PERIOD  837
                          TIME STEP LENGTH =    1.00000    
                        STRESS PERIOD TIME =    1.00000    
                     TOTAL SIMULATION TIME =    837.000    

end timestep


start timestep kper="838" kstp="1" mode="normal"


 OUTPUT CONTROL FOR STRESS PERIOD 838 IS REPEATED USING SETTINGS FROM A PREVIOUS STRESS PERIOD.


 STRESS PERIOD 838 IS TRANSIENT


 REUSING WELS FROM LAST STRESS PERIOD

 REUSING DRNS FROM LAST STRESS PERIOD

 REUSING RCHS FROM LAST STRESS PERIOD


  VOLUME BUDGET FOR ENTIRE MODEL AT END OF TIME STEP    1, STRESS PERIOD 838
  ---------------------------------------------------------------------------------------------------

     CUMULATIVE VOLUME      L**3       RATES FOR THIS TIME STEP      L**3/T          PACKAGE NAME    
     ------------------                 ------------------------                     ----------------

           IN:                                      IN:
           ---                                      ---
              STO-SS =           0.0000                STO-SS =           0.0000     STORAGE         
              STO-SY = 15188394613.5363                STO-SY =     7410650.2594     STORAGE         
                 WEL =           0.0000                   WEL =           0.0000     WEL_0           
                 DRN =           0.0000                   DRN =           0.0000     DRN_0           
                 RCH = 38159570111.8760                   RCH =   149815465.9288     RCH_0           

            TOTAL IN = 53347964725.4123              TOTAL IN =   157226116.1882

          OUT:                                     OUT:
          ----                                     ----
              STO-SS =           0.0000                STO-SS =           0.0000     STORAGE         
              STO-SY = 14631516837.0152                STO-SY =    62348291.0213     STORAGE         
                 WEL =  8672999399.1907                   WEL =     2842938.6870     WEL_0           
                 DRN = 30043438131.4721                   DRN =    92034886.4417     DRN_0           
                 RCH =           0.0000                   RCH =           0.0000     RCH_0           

           TOTAL OUT = 53347954367.6780             TOTAL OUT =   157226116.1500

            IN - OUT =       10357.7343              IN - OUT =       3.8229E-02

 PERCENT DISCREPANCY =           0.00     PERCENT DISCREPANCY =           0.00




         TIME SUMMARY AT END OF TIME STEP    1 IN STRESS PERIOD  838
                          TIME STEP LENGTH =    1.00000    
                        STRESS PERIOD TIME =    1.00000    
                     TOTAL SIMULATION TIME =    838.000    

end timestep


start timestep kper="839" kstp="1" mode="normal"


 OUTPUT CONTROL FOR STRESS PERIOD 839 IS REPEATED USING SETTINGS FROM A PREVIOUS STRESS PERIOD.


 STRESS PERIOD 839 IS TRANSIENT


 REUSING WELS FROM LAST STRESS PERIOD

 REUSING DRNS FROM LAST STRESS PERIOD

 REUSING RCHS FROM LAST STRESS PERIOD


  VOLUME BUDGET FOR ENTIRE MODEL AT END OF TIME STEP    1, STRESS PERIOD 839
  ---------------------------------------------------------------------------------------------------

     CUMULATIVE VOLUME      L**3       RATES FOR THIS TIME STEP      L**3/T          PACKAGE NAME    
     ------------------                 ------------------------                     ----------------

           IN:                                      IN:
           ---                                      ---
              STO-SS =           0.0000                STO-SS =           0.0000     STORAGE         
              STO-SY = 15203543013.4107                STO-SY =    15148399.8743     STORAGE         
                 WEL =           0.0000                   WEL =           0.0000     WEL_0           
                 DRN =           0.0000                   DRN =           0.0000     DRN_0           
                 RCH = 38283424927.5108                   RCH =   123854815.6349     RCH_0           

            TOTAL IN = 53486967940.9215              TOTAL IN =   139003215.5092

          OUT:                                     OUT:
          ----                                     ----
              STO-SS =           0.0000                STO-SS =           0.0000     STORAGE         
              STO-SY = 14674024079.1936                STO-SY =    42507242.1784     STORAGE         
                 WEL =  8676150586.8527                   WEL =     3151187.6620     WEL_0           
                 DRN = 30136782914.1740                   DRN =    93344782.7019     DRN_0           
                 RCH =           0.0000                   RCH =           0.0000     RCH_0           

           TOTAL OUT = 53486957580.2203             TOTAL OUT =   139003212.5423

            IN - OUT =       10360.7012              IN - OUT =           2.9669

 PERCENT DISCREPANCY =           0.00     PERCENT DISCREPANCY =           0.00




         TIME SUMMARY AT END OF TIME STEP    1 IN STRESS PERIOD  839
                          TIME STEP LENGTH =    1.00000    
                        STRESS PERIOD TIME =    1.00000    
                     TOTAL SIMULATION TIME =    839.000    

end timestep


start timestep kper="840" kstp="1" mode="normal"


 OUTPUT CONTROL FOR STRESS PERIOD 840 IS REPEATED USING SETTINGS FROM A PREVIOUS STRESS PERIOD.


 STRESS PERIOD 840 IS TRANSIENT


 REUSING WELS FROM LAST STRESS PERIOD

 REUSING DRNS FROM LAST STRESS PERIOD

 REUSING RCHS FROM LAST STRESS PERIOD


  VOLUME BUDGET FOR ENTIRE MODEL AT END OF TIME STEP    1, STRESS PERIOD 840
  ---------------------------------------------------------------------------------------------------

     CUMULATIVE VOLUME      L**3       RATES FOR THIS TIME STEP      L**3/T          PACKAGE NAME    
     ------------------                 ------------------------                     ----------------

           IN:                                      IN:
           ---                                      ---
              STO-SS =           0.0000                STO-SS =           0.0000     STORAGE         
              STO-SY = 15209765046.7547                STO-SY =     6222033.3440     STORAGE         
                 WEL =           0.0000                   WEL =           0.0000     WEL_0           
                 DRN =           0.0000                   DRN =           0.0000     DRN_0           
                 RCH = 38465793873.5719                   RCH =   182368946.0611     RCH_0           

            TOTAL IN = 53675558920.3266              TOTAL IN =   188590979.4051

          OUT:                                     OUT:
          ----                                     ----
              STO-SS =           0.0000                STO-SS =           0.0000     STORAGE         
              STO-SY = 14757392913.2565                STO-SY =    83368834.0630     STORAGE         
                 WEL =  8679072714.9827                   WEL =     2922128.1300     WEL_0           
                 DRN = 30239082931.5874                   DRN =   102300017.4134     DRN_0           
                 RCH =           0.0000                   RCH =           0.0000     RCH_0           

           TOTAL OUT = 53675548559.8266             TOTAL OUT =   188590979.6063

            IN - OUT =       10360.5000              IN - OUT =          -0.2012

 PERCENT DISCREPANCY =           0.00     PERCENT DISCREPANCY =          -0.00




         TIME SUMMARY AT END OF TIME STEP    1 IN STRESS PERIOD  840
                          TIME STEP LENGTH =    1.00000    
                        STRESS PERIOD TIME =    1.00000    
                     TOTAL SIMULATION TIME =    840.000    

end timestep


start timestep kper="841" kstp="1" mode="normal"


 OUTPUT CONTROL FOR STRESS PERIOD 841 IS REPEATED USING SETTINGS FROM A PREVIOUS STRESS PERIOD.


 STRESS PERIOD 841 IS TRANSIENT


 REUSING WELS FROM LAST STRESS PERIOD

 REUSING DRNS FROM LAST STRESS PERIOD

 REUSING RCHS FROM LAST STRESS PERIOD


  VOLUME BUDGET FOR ENTIRE MODEL AT END OF TIME STEP    1, STRESS PERIOD 841
  ---------------------------------------------------------------------------------------------------

     CUMULATIVE VOLUME      L**3       RATES FOR THIS TIME STEP      L**3/T          PACKAGE NAME    
     ------------------                 ------------------------                     ----------------

           IN:                                      IN:
           ---                                      ---
              STO-SS =           0.0000                STO-SS =           0.0000     STORAGE         
              STO-SY = 15215463095.8260                STO-SY =     5698049.0713     STORAGE         
                 WEL =           0.0000                   WEL =           0.0000     WEL_0           
                 DRN =           0.0000                   DRN =           0.0000     DRN_0           
                 RCH = 38971274040.6311                   RCH =   505480167.0592     RCH_0           

            TOTAL IN = 54186737136.4571              TOTAL IN =   511178216.1305

          OUT:                                     OUT:
          ----                                     ----
              STO-SS =           0.0000                STO-SS =           0.0000     STORAGE         
              STO-SY = 15017777332.0884                STO-SY =   260384418.8319     STORAGE         
                 WEL =  8680962044.0446                   WEL =     1889329.0619     WEL_0           
                 DRN = 30487987399.7702                   DRN =   248904468.1829     DRN_0           
                 RCH =           0.0000                   RCH =           0.0000     RCH_0           

           TOTAL OUT = 54186726775.9032             TOTAL OUT =   511178216.0766

            IN - OUT =       10360.5538              IN - OUT =       5.3859E-02

 PERCENT DISCREPANCY =           0.00     PERCENT DISCREPANCY =           0.00




         TIME SUMMARY AT END OF TIME STEP    1 IN STRESS PERIOD  841
                          TIME STEP LENGTH =    1.00000    
                        STRESS PERIOD TIME =    1.00000    
                     TOTAL SIMULATION TIME =    841.000    

end timestep


start timestep kper="842" kstp="1" mode="normal"


 OUTPUT CONTROL FOR STRESS PERIOD 842 IS REPEATED USING SETTINGS FROM A PREVIOUS STRESS PERIOD.


 STRESS PERIOD 842 IS TRANSIENT


 REUSING WELS FROM LAST STRESS PERIOD

 REUSING DRNS FROM LAST STRESS PERIOD

 REUSING RCHS FROM LAST STRESS PERIOD


  VOLUME BUDGET FOR ENTIRE MODEL AT END OF TIME STEP    1, STRESS PERIOD 842
  ---------------------------------------------------------------------------------------------------

     CUMULATIVE VOLUME      L**3       RATES FOR THIS TIME STEP      L**3/T          PACKAGE NAME    
     ------------------                 ------------------------                     ----------------

           IN:                                      IN:
           ---                                      ---
              STO-SS =           0.0000                STO-SS =           0.0000     STORAGE         
              STO-SY = 15229137145.9852                STO-SY =    13674050.1592     STORAGE         
                 WEL =           0.0000                   WEL =           0.0000     WEL_0           
                 DRN =           0.0000                   DRN =           0.0000     DRN_0           
                 RCH = 39152275092.9252                   RCH =   181001052.2941     RCH_0           

            TOTAL IN = 54381412238.9104              TOTAL IN =   194675102.4533

          OUT:                                     OUT:
          ----                                     ----
              STO-SS =           0.0000                STO-SS =           0.0000     STORAGE         
              STO-SY = 15089486534.2846                STO-SY =    71709202.1962     STORAGE         
                 WEL =  8683273814.2808                   WEL =     2311770.2362     WEL_0           
                 DRN = 30608641528.4806                   DRN =   120654128.7104     DRN_0           
                 RCH =           0.0000                   RCH =           0.0000     RCH_0           

           TOTAL OUT = 54381401877.0459             TOTAL OUT =   194675101.1427

            IN - OUT =       10361.8645              IN - OUT =           1.3107

 PERCENT DISCREPANCY =           0.00     PERCENT DISCREPANCY =           0.00




         TIME SUMMARY AT END OF TIME STEP    1 IN STRESS PERIOD  842
                          TIME STEP LENGTH =    1.00000    
                        STRESS PERIOD TIME =    1.00000    
                     TOTAL SIMULATION TIME =    842.000    

end timestep


start timestep kper="843" kstp="1" mode="normal"


 OUTPUT CONTROL FOR STRESS PERIOD 843 IS REPEATED USING SETTINGS FROM A PREVIOUS STRESS PERIOD.


 STRESS PERIOD 843 IS TRANSIENT


 REUSING WELS FROM LAST STRESS PERIOD

 REUSING DRNS FROM LAST STRESS PERIOD

 REUSING RCHS FROM LAST STRESS PERIOD


  VOLUME BUDGET FOR ENTIRE MODEL AT END OF TIME STEP    1, STRESS PERIOD 843
  ---------------------------------------------------------------------------------------------------

     CUMULATIVE VOLUME      L**3       RATES FOR THIS TIME STEP      L**3/T          PACKAGE NAME    
     ------------------                 ------------------------                     ----------------

           IN:                                      IN:
           ---                                      ---
              STO-SS =           0.0000                STO-SS =           0.0000     STORAGE         
              STO-SY = 15247072064.1309                STO-SY =    17934918.1456     STORAGE         
                 WEL =           0.0000                   WEL =           0.0000     WEL_0           
                 DRN =           0.0000                   DRN =           0.0000     DRN_0           
                 RCH = 39264758281.2707                   RCH =   112483188.3455     RCH_0           

            TOTAL IN = 54511830345.4016              TOTAL IN =   130418106.4912

          OUT:                                     OUT:
          ----                                     ----
              STO-SS =           0.0000                STO-SS =           0.0000     STORAGE         
              STO-SY = 15106743933.3113                STO-SY =    17257399.0268     STORAGE         
                 WEL =  8686000072.8139                   WEL =     2726258.5331     WEL_0           
                 DRN = 30719075883.7922                   DRN =   110434355.3116     DRN_0           
                 RCH =           0.0000                   RCH =           0.0000     RCH_0           

           TOTAL OUT = 54511819889.9174             TOTAL OUT =   130418012.8715

            IN - OUT =       10455.4842              IN - OUT =          93.6197

 PERCENT DISCREPANCY =           0.00     PERCENT DISCREPANCY =           0.00




         TIME SUMMARY AT END OF TIME STEP    1 IN STRESS PERIOD  843
                          TIME STEP LENGTH =    1.00000    
                        STRESS PERIOD TIME =    1.00000    
                     TOTAL SIMULATION TIME =    843.000    

end timestep


start timestep kper="844" kstp="1" mode="normal"


 OUTPUT CONTROL FOR STRESS PERIOD 844 IS REPEATED USING SETTINGS FROM A PREVIOUS STRESS PERIOD.


 STRESS PERIOD 844 IS TRANSIENT


 REUSING WELS FROM LAST STRESS PERIOD

 REUSING DRNS FROM LAST STRESS PERIOD

 REUSING RCHS FROM LAST STRESS PERIOD


  VOLUME BUDGET FOR ENTIRE MODEL AT END OF TIME STEP    1, STRESS PERIOD 844
  ---------------------------------------------------------------------------------------------------

     CUMULATIVE VOLUME      L**3       RATES FOR THIS TIME STEP      L**3/T          PACKAGE NAME    
     ------------------                 ------------------------                     ----------------

           IN:                                      IN:
           ---                                      ---
              STO-SS =           0.0000                STO-SS =           0.0000     STORAGE         
              STO-SY = 15268480232.8294                STO-SY =    21408168.6985     STORAGE         
                 WEL =           0.0000                   WEL =           0.0000     WEL_0           
                 DRN =           0.0000                   DRN =           0.0000     DRN_0           
                 RCH = 39339501998.9651                   RCH =    74743717.6944     RCH_0           

            TOTAL IN = 54607982231.7945              TOTAL IN =    96151886.3929

          OUT:                                     OUT:
          ----                                     ----
              STO-SS =           0.0000                STO-SS =           0.0000     STORAGE         
              STO-SY = 15117316073.4222                STO-SY =    10572140.1109     STORAGE         
                 WEL =  8689648561.8472                   WEL =     3648489.0332     WEL_0           
                 DRN = 30801007102.8934                   DRN =    81931219.1013     DRN_0           
                 RCH =           0.0000                   RCH =           0.0000     RCH_0           

           TOTAL OUT = 54607971738.1628             TOTAL OUT =    96151848.2454

            IN - OUT =       10493.6317              IN - OUT =          38.1475

 PERCENT DISCREPANCY =           0.00     PERCENT DISCREPANCY =           0.00




         TIME SUMMARY AT END OF TIME STEP    1 IN STRESS PERIOD  844
                          TIME STEP LENGTH =    1.00000    
                        STRESS PERIOD TIME =    1.00000    
                     TOTAL SIMULATION TIME =    844.000    

end timestep


start timestep kper="845" kstp="1" mode="normal"


 OUTPUT CONTROL FOR STRESS PERIOD 845 IS REPEATED USING SETTINGS FROM A PREVIOUS STRESS PERIOD.


 STRESS PERIOD 845 IS TRANSIENT


 REUSING WELS FROM LAST STRESS PERIOD

 REUSING DRNS FROM LAST STRESS PERIOD

 REUSING RCHS FROM LAST STRESS PERIOD


  VOLUME BUDGET FOR ENTIRE MODEL AT END OF TIME STEP    1, STRESS PERIOD 845
  ---------------------------------------------------------------------------------------------------

     CUMULATIVE VOLUME      L**3       RATES FOR THIS TIME STEP      L**3/T          PACKAGE NAME    
     ------------------                 ------------------------                     ----------------

           IN:                                      IN:
           ---                                      ---
              STO-SS =           0.0000                STO-SS =           0.0000     STORAGE         
              STO-SY = 15284049842.7468                STO-SY =    15569609.9174     STORAGE         
                 WEL =           0.0000                   WEL =           0.0000     WEL_0           
                 DRN =           0.0000                   DRN =           0.0000     DRN_0           
                 RCH = 39445168805.4690                   RCH =   105666806.5039     RCH_0           

            TOTAL IN = 54729218648.2158              TOTAL IN =   121236416.4213

          OUT:                                     OUT:
          ----                                     ----
              STO-SS =           0.0000                STO-SS =           0.0000     STORAGE         
              STO-SY = 15130407933.5182                STO-SY =    13091860.0960     STORAGE         
                 WEL =  8693888286.0331                   WEL =     4239724.1859     WEL_0           
                 DRN = 30904911920.5802                   DRN =   103904817.6868     DRN_0           
                 RCH =           0.0000                   RCH =           0.0000     RCH_0           

           TOTAL OUT = 54729208140.1315             TOTAL OUT =   121236401.9687

            IN - OUT =       10508.0843              IN - OUT =          14.4526

 PERCENT DISCREPANCY =           0.00     PERCENT DISCREPANCY =           0.00




         TIME SUMMARY AT END OF TIME STEP    1 IN STRESS PERIOD  845
                          TIME STEP LENGTH =    1.00000    
                        STRESS PERIOD TIME =    1.00000    
                     TOTAL SIMULATION TIME =    845.000    

end timestep


start timestep kper="846" kstp="1" mode="normal"


 OUTPUT CONTROL FOR STRESS PERIOD 846 IS REPEATED USING SETTINGS FROM A PREVIOUS STRESS PERIOD.


 STRESS PERIOD 846 IS TRANSIENT


 REUSING WELS FROM LAST STRESS PERIOD

 REUSING DRNS FROM LAST STRESS PERIOD

 REUSING RCHS FROM LAST STRESS PERIOD


  VOLUME BUDGET FOR ENTIRE MODEL AT END OF TIME STEP    1, STRESS PERIOD 846
  ---------------------------------------------------------------------------------------------------

     CUMULATIVE VOLUME      L**3       RATES FOR THIS TIME STEP      L**3/T          PACKAGE NAME    
     ------------------                 ------------------------                     ----------------

           IN:                                      IN:
           ---                                      ---
              STO-SS =           0.0000                STO-SS =           0.0000     STORAGE         
              STO-SY = 15304069060.1388                STO-SY =    20019217.3920     STORAGE         
                 WEL =           0.0000                   WEL =           0.0000     WEL_0           
                 DRN =           0.0000                   DRN =           0.0000     DRN_0           
                 RCH = 39519755470.3542                   RCH =    74586664.8852     RCH_0           

            TOTAL IN = 54823824530.4930              TOTAL IN =    94605882.2773

          OUT:                                     OUT:
          ----                                     ----
              STO-SS =           0.0000                STO-SS =           0.0000     STORAGE         
              STO-SY = 15139324570.4260                STO-SY =     8916636.9078     STORAGE         
                 WEL =  8698346159.9864                   WEL =     4457873.9533     WEL_0           
                 DRN = 30986143313.3861                   DRN =    81231392.8059     DRN_0           
                 RCH =           0.0000                   RCH =           0.0000     RCH_0           

           TOTAL OUT = 54823814043.7985             TOTAL OUT =    94605903.6670

            IN - OUT =       10486.6945              IN - OUT =         -21.3898

 PERCENT DISCREPANCY =           0.00     PERCENT DISCREPANCY =          -0.00




         TIME SUMMARY AT END OF TIME STEP    1 IN STRESS PERIOD  846
                          TIME STEP LENGTH =    1.00000    
                        STRESS PERIOD TIME =    1.00000    
                     TOTAL SIMULATION TIME =    846.000    

end timestep


start timestep kper="847" kstp="1" mode="normal"


 OUTPUT CONTROL FOR STRESS PERIOD 847 IS REPEATED USING SETTINGS FROM A PREVIOUS STRESS PERIOD.


 STRESS PERIOD 847 IS TRANSIENT


 REUSING WELS FROM LAST STRESS PERIOD

 REUSING DRNS FROM LAST STRESS PERIOD

 REUSING RCHS FROM LAST STRESS PERIOD


  VOLUME BUDGET FOR ENTIRE MODEL AT END OF TIME STEP    1, STRESS PERIOD 847
  ---------------------------------------------------------------------------------------------------

     CUMULATIVE VOLUME      L**3       RATES FOR THIS TIME STEP      L**3/T          PACKAGE NAME    
     ------------------                 ------------------------                     ----------------

           IN:                                      IN:
           ---                                      ---
              STO-SS =           0.0000                STO-SS =           0.0000     STORAGE         
              STO-SY = 15317617036.5135                STO-SY =    13547976.3746     STORAGE         
                 WEL =           0.0000                   WEL =           0.0000     WEL_0           
                 DRN =           0.0000                   DRN =           0.0000     DRN_0           
                 RCH = 39627937957.1504                   RCH =   108182486.7961     RCH_0           

            TOTAL IN = 54945554993.6638              TOTAL IN =   121730463.1708

          OUT:                                     OUT:
          ----                                     ----
              STO-SS =           0.0000                STO-SS =           0.0000     STORAGE         
              STO-SY = 15154614428.4435                STO-SY =    15289858.0175     STORAGE         
                 WEL =  8703020653.2563                   WEL =     4674493.2699     WEL_0           
                 DRN = 31087909415.4203                   DRN =   101766102.0342     DRN_0           
                 RCH =           0.0000                   RCH =           0.0000     RCH_0           

           TOTAL OUT = 54945544497.1201             TOTAL OUT =   121730453.3216

            IN - OUT =       10496.5437              IN - OUT =           9.8492

 PERCENT DISCREPANCY =           0.00     PERCENT DISCREPANCY =           0.00




         TIME SUMMARY AT END OF TIME STEP    1 IN STRESS PERIOD  847
                          TIME STEP LENGTH =    1.00000    
                        STRESS PERIOD TIME =    1.00000    
                     TOTAL SIMULATION TIME =    847.000    

end timestep


start timestep kper="848" kstp="1" mode="normal"


 OUTPUT CONTROL FOR STRESS PERIOD 848 IS REPEATED USING SETTINGS FROM A PREVIOUS STRESS PERIOD.


 STRESS PERIOD 848 IS TRANSIENT


 REUSING WELS FROM LAST STRESS PERIOD

 REUSING DRNS FROM LAST STRESS PERIOD

 REUSING RCHS FROM LAST STRESS PERIOD


  VOLUME BUDGET FOR ENTIRE MODEL AT END OF TIME STEP    1, STRESS PERIOD 848
  ---------------------------------------------------------------------------------------------------

     CUMULATIVE VOLUME      L**3       RATES FOR THIS TIME STEP      L**3/T          PACKAGE NAME    
     ------------------                 ------------------------                     ----------------

           IN:                                      IN:
           ---                                      ---
              STO-SS =           0.0000                STO-SS =           0.0000     STORAGE         
              STO-SY = 15340354841.7842                STO-SY =    22737805.2707     STORAGE         
                 WEL =           0.0000                   WEL =           0.0000     WEL_0           
                 DRN =           0.0000                   DRN =           0.0000     DRN_0           
                 RCH = 39696394433.7990                   RCH =    68456476.6487     RCH_0           

            TOTAL IN = 55036749275.5832              TOTAL IN =    91194281.9194

          OUT:                                     OUT:
          ----                                     ----
              STO-SS =           0.0000                STO-SS =           0.0000     STORAGE         
              STO-SY = 15161979087.6516                STO-SY =     7364659.2081     STORAGE         
                 WEL =  8708061286.6304                   WEL =     5040633.3741     WEL_0           
                 DRN = 31166698410.0804                   DRN =    78788994.6601     DRN_0           
                 RCH =           0.0000                   RCH =           0.0000     RCH_0           

           TOTAL OUT = 55036738784.3624             TOTAL OUT =    91194287.2423

            IN - OUT =       10491.2208              IN - OUT =          -5.3229

 PERCENT DISCREPANCY =           0.00     PERCENT DISCREPANCY =          -0.00




         TIME SUMMARY AT END OF TIME STEP    1 IN STRESS PERIOD  848
                          TIME STEP LENGTH =    1.00000    
                        STRESS PERIOD TIME =    1.00000    
                     TOTAL SIMULATION TIME =    848.000    

end timestep


start timestep kper="849" kstp="1" mode="normal"


 OUTPUT CONTROL FOR STRESS PERIOD 849 IS REPEATED USING SETTINGS FROM A PREVIOUS STRESS PERIOD.


 STRESS PERIOD 849 IS TRANSIENT


 REUSING WELS FROM LAST STRESS PERIOD

 REUSING DRNS FROM LAST STRESS PERIOD

 REUSING RCHS FROM LAST STRESS PERIOD


  VOLUME BUDGET FOR ENTIRE MODEL AT END OF TIME STEP    1, STRESS PERIOD 849
  ---------------------------------------------------------------------------------------------------

     CUMULATIVE VOLUME      L**3       RATES FOR THIS TIME STEP      L**3/T          PACKAGE NAME    
     ------------------                 ------------------------                     ----------------

           IN:                                      IN:
           ---                                      ---
              STO-SS =           0.0000                STO-SS =           0.0000     STORAGE         
              STO-SY = 15358195739.2868                STO-SY =    17840897.5026     STORAGE         
                 WEL =           0.0000                   WEL =           0.0000     WEL_0           
                 DRN =           0.0000                   DRN =           0.0000     DRN_0           
                 RCH = 39789979224.6514                   RCH =    93584790.8524     RCH_0           

            TOTAL IN = 55148174963.9382              TOTAL IN =   111425688.3550

          OUT:                                     OUT:
          ----                                     ----
              STO-SS =           0.0000                STO-SS =           0.0000     STORAGE         
              STO-SY = 15173870695.4291                STO-SY =    11891607.7776     STORAGE         
                 WEL =  8713179431.6412                   WEL =     5118145.0108     WEL_0           
                 DRN = 31261114353.9297                   DRN =    94415943.8493     DRN_0           
                 RCH =           0.0000                   RCH =           0.0000     RCH_0           

           TOTAL OUT = 55148164481.0000             TOTAL OUT =   111425696.6376

            IN - OUT =       10482.9381              IN - OUT =          -8.2826

 PERCENT DISCREPANCY =           0.00     PERCENT DISCREPANCY =          -0.00




         TIME SUMMARY AT END OF TIME STEP    1 IN STRESS PERIOD  849
                          TIME STEP LENGTH =    1.00000    
                        STRESS PERIOD TIME =    1.00000    
                     TOTAL SIMULATION TIME =    849.000    

end timestep


start timestep kper="850" kstp="1" mode="normal"


 OUTPUT CONTROL FOR STRESS PERIOD 850 IS REPEATED USING SETTINGS FROM A PREVIOUS STRESS PERIOD.


 STRESS PERIOD 850 IS TRANSIENT


 REUSING WELS FROM LAST STRESS PERIOD

 REUSING DRNS FROM LAST STRESS PERIOD

 REUSING RCHS FROM LAST STRESS PERIOD


  VOLUME BUDGET FOR ENTIRE MODEL AT END OF TIME STEP    1, STRESS PERIOD 850
  ---------------------------------------------------------------------------------------------------

     CUMULATIVE VOLUME      L**3       RATES FOR THIS TIME STEP      L**3/T          PACKAGE NAME    
     ------------------                 ------------------------                     ----------------

           IN:                                      IN:
           ---                                      ---
              STO-SS =           0.0000                STO-SS =           0.0000     STORAGE         
              STO-SY = 15381691233.7778                STO-SY =    23495494.4911     STORAGE         
                 WEL =           0.0000                   WEL =           0.0000     WEL_0           
                 DRN =           0.0000                   DRN =           0.0000     DRN_0           
                 RCH = 39851505869.2262                   RCH =    61526644.5747     RCH_0           

            TOTAL IN = 55233197103.0040              TOTAL IN =    85022139.0658

          OUT:                                     OUT:
          ----                                     ----
              STO-SS =           0.0000                STO-SS =           0.0000     STORAGE         
              STO-SY = 15179774116.2140                STO-SY =     5903420.7849     STORAGE         
                 WEL =  8718660708.8438                   WEL =     5481277.2026     WEL_0           
                 DRN = 31334751754.5950                   DRN =    73637400.6653     DRN_0           
                 RCH =           0.0000                   RCH =           0.0000     RCH_0           

           TOTAL OUT = 55233186579.6528             TOTAL OUT =    85022098.6528

            IN - OUT =       10523.3512              IN - OUT =          40.4130

 PERCENT DISCREPANCY =           0.00     PERCENT DISCREPANCY =           0.00




         TIME SUMMARY AT END OF TIME STEP    1 IN STRESS PERIOD  850
                          TIME STEP LENGTH =    1.00000    
                        STRESS PERIOD TIME =    1.00000    
                     TOTAL SIMULATION TIME =    850.000    

end timestep


start timestep kper="851" kstp="1" mode="normal"


 OUTPUT CONTROL FOR STRESS PERIOD 851 IS REPEATED USING SETTINGS FROM A PREVIOUS STRESS PERIOD.


 STRESS PERIOD 851 IS TRANSIENT


 REUSING WELS FROM LAST STRESS PERIOD

 REUSING DRNS FROM LAST STRESS PERIOD

 REUSING RCHS FROM LAST STRESS PERIOD


  VOLUME BUDGET FOR ENTIRE MODEL AT END OF TIME STEP    1, STRESS PERIOD 851
  ---------------------------------------------------------------------------------------------------

     CUMULATIVE VOLUME      L**3       RATES FOR THIS TIME STEP      L**3/T          PACKAGE NAME    
     ------------------                 ------------------------                     ----------------

           IN:                                      IN:
           ---                                      ---
              STO-SS =           0.0000                STO-SS =           0.0000     STORAGE         
              STO-SY = 15404906107.3121                STO-SY =    23214873.5342     STORAGE         
                 WEL =           0.0000                   WEL =           0.0000     WEL_0           
                 DRN =           0.0000                   DRN =           0.0000     DRN_0           
                 RCH = 39922752028.2005                   RCH =    71246158.9743     RCH_0           

            TOTAL IN = 55327658135.5126              TOTAL IN =    94461032.5086

          OUT:                                     OUT:
          ----                                     ----
              STO-SS =           0.0000                STO-SS =           0.0000     STORAGE         
              STO-SY = 15186328296.4637                STO-SY =     6554180.2496     STORAGE         
                 WEL =  8724348537.4069                   WEL =     5687828.5631     WEL_0           
                 DRN = 31416970643.4568                   DRN =    82218888.8618     DRN_0           
                 RCH =           0.0000                   RCH =           0.0000     RCH_0           

           TOTAL OUT = 55327647477.3273             TOTAL OUT =    94460897.6745

            IN - OUT =       10658.1853              IN - OUT =         134.8341

 PERCENT DISCREPANCY =           0.00     PERCENT DISCREPANCY =           0.00




         TIME SUMMARY AT END OF TIME STEP    1 IN STRESS PERIOD  851
                          TIME STEP LENGTH =    1.00000    
                        STRESS PERIOD TIME =    1.00000    
                     TOTAL SIMULATION TIME =    851.000    

end timestep


start timestep kper="852" kstp="1" mode="normal"


 OUTPUT CONTROL FOR STRESS PERIOD 852 IS REPEATED USING SETTINGS FROM A PREVIOUS STRESS PERIOD.


 STRESS PERIOD 852 IS TRANSIENT


 REUSING WELS FROM LAST STRESS PERIOD

 REUSING DRNS FROM LAST STRESS PERIOD

 REUSING RCHS FROM LAST STRESS PERIOD


  VOLUME BUDGET FOR ENTIRE MODEL AT END OF TIME STEP    1, STRESS PERIOD 852
  ---------------------------------------------------------------------------------------------------

     CUMULATIVE VOLUME      L**3       RATES FOR THIS TIME STEP      L**3/T          PACKAGE NAME    
     ------------------                 ------------------------                     ----------------

           IN:                                      IN:
           ---                                      ---
              STO-SS =           0.0000                STO-SS =           0.0000     STORAGE         
              STO-SY = 15423495816.3505                STO-SY =    18589709.0384     STORAGE         
                 WEL =           0.0000                   WEL =           0.0000     WEL_0           
                 DRN =           0.0000                   DRN =           0.0000     DRN_0           
                 RCH = 39992177780.0615                   RCH =    69425751.8610     RCH_0           

            TOTAL IN = 55415673596.4120              TOTAL IN =    88015460.8994

          OUT:                                     OUT:
          ----                                     ----
              STO-SS =           0.0000                STO-SS =           0.0000     STORAGE         
              STO-SY = 15193409934.5071                STO-SY =     7081638.0435     STORAGE         
                 WEL =  8730041918.1149                   WEL =     5693380.7080     WEL_0           
                 DRN = 31492211063.9437                   DRN =    75240420.4869     DRN_0           
                 RCH =           0.0000                   RCH =           0.0000     RCH_0           

           TOTAL OUT = 55415662916.5658             TOTAL OUT =    88015439.2384

            IN - OUT =       10679.8463              IN - OUT =          21.6610

 PERCENT DISCREPANCY =           0.00     PERCENT DISCREPANCY =           0.00




         TIME SUMMARY AT END OF TIME STEP    1 IN STRESS PERIOD  852
                          TIME STEP LENGTH =    1.00000    
                        STRESS PERIOD TIME =    1.00000    
                     TOTAL SIMULATION TIME =    852.000    

end timestep


start timestep kper="853" kstp="1" mode="normal"


 OUTPUT CONTROL FOR STRESS PERIOD 853 IS REPEATED USING SETTINGS FROM A PREVIOUS STRESS PERIOD.


 STRESS PERIOD 853 IS TRANSIENT


 REUSING WELS FROM LAST STRESS PERIOD

 REUSING DRNS FROM LAST STRESS PERIOD

 REUSING RCHS FROM LAST STRESS PERIOD


  VOLUME BUDGET FOR ENTIRE MODEL AT END OF TIME STEP    1, STRESS PERIOD 853
  ---------------------------------------------------------------------------------------------------

     CUMULATIVE VOLUME      L**3       RATES FOR THIS TIME STEP      L**3/T          PACKAGE NAME    
     ------------------                 ------------------------                     ----------------

           IN:                                      IN:
           ---                                      ---
              STO-SS =           0.0000                STO-SS =           0.0000     STORAGE         
              STO-SY = 15446763807.3147                STO-SY =    23267990.9642     STORAGE         
                 WEL =           0.0000                   WEL =           0.0000     WEL_0           
                 DRN =           0.0000                   DRN =           0.0000     DRN_0           
                 RCH = 40059644894.3363                   RCH =    67467114.2748     RCH_0           

            TOTAL IN = 55506408701.6510              TOTAL IN =    90735105.2390

          OUT:                                     OUT:
          ----                                     ----
              STO-SS =           0.0000                STO-SS =           0.0000     STORAGE         
              STO-SY = 15199294068.4908                STO-SY =     5884133.9837     STORAGE         
                 WEL =  8735734770.2672                   WEL =     5692852.1523     WEL_0           
                 DRN = 31571369106.1277                   DRN =    79158042.1839     DRN_0           
                 RCH =           0.0000                   RCH =           0.0000     RCH_0           

           TOTAL OUT = 55506397944.8857             TOTAL OUT =    90735028.3200

            IN - OUT =       10756.7653              IN - OUT =          76.9191

 PERCENT DISCREPANCY =           0.00     PERCENT DISCREPANCY =           0.00




         TIME SUMMARY AT END OF TIME STEP    1 IN STRESS PERIOD  853
                          TIME STEP LENGTH =    1.00000    
                        STRESS PERIOD TIME =    1.00000    
                     TOTAL SIMULATION TIME =    853.000    

end timestep


start timestep kper="854" kstp="1" mode="normal"


 OUTPUT CONTROL FOR STRESS PERIOD 854 IS REPEATED USING SETTINGS FROM A PREVIOUS STRESS PERIOD.


 STRESS PERIOD 854 IS TRANSIENT


 REUSING WELS FROM LAST STRESS PERIOD

 REUSING DRNS FROM LAST STRESS PERIOD

 REUSING RCHS FROM LAST STRESS PERIOD


  VOLUME BUDGET FOR ENTIRE MODEL AT END OF TIME STEP    1, STRESS PERIOD 854
  ---------------------------------------------------------------------------------------------------

     CUMULATIVE VOLUME      L**3       RATES FOR THIS TIME STEP      L**3/T          PACKAGE NAME    
     ------------------                 ------------------------                     ----------------

           IN:                                      IN:
           ---                                      ---
              STO-SS =           0.0000                STO-SS =           0.0000     STORAGE         
              STO-SY = 15471449069.3127                STO-SY =    24685261.9980     STORAGE         
                 WEL =           0.0000                   WEL =           0.0000     WEL_0           
                 DRN =           0.0000                   DRN =           0.0000     DRN_0           
                 RCH = 40112873922.6378                   RCH =    53229028.3015     RCH_0           

            TOTAL IN = 55584322991.9505              TOTAL IN =    77914290.2995

          OUT:                                     OUT:
          ----                                     ----
              STO-SS =           0.0000                STO-SS =           0.0000     STORAGE         
              STO-SY = 15204066222.1088                STO-SY =     4772153.6180     STORAGE         
                 WEL =  8741577193.9587                   WEL =     5842423.6915     WEL_0           
                 DRN = 31638668792.3263                   DRN =    67299686.1987     DRN_0           
                 RCH =           0.0000                   RCH =           0.0000     RCH_0           

           TOTAL OUT = 55584312208.3939             TOTAL OUT =    77914263.5082

            IN - OUT =       10783.5566              IN - OUT =          26.7913

 PERCENT DISCREPANCY =           0.00     PERCENT DISCREPANCY =           0.00




         TIME SUMMARY AT END OF TIME STEP    1 IN STRESS PERIOD  854
                          TIME STEP LENGTH =    1.00000    
                        STRESS PERIOD TIME =    1.00000    
                     TOTAL SIMULATION TIME =    854.000    

end timestep


start timestep kper="855" kstp="1" mode="normal"


 OUTPUT CONTROL FOR STRESS PERIOD 855 IS REPEATED USING SETTINGS FROM A PREVIOUS STRESS PERIOD.


 STRESS PERIOD 855 IS TRANSIENT


 REUSING WELS FROM LAST STRESS PERIOD

 REUSING DRNS FROM LAST STRESS PERIOD

 REUSING RCHS FROM LAST STRESS PERIOD


  VOLUME BUDGET FOR ENTIRE MODEL AT END OF TIME STEP    1, STRESS PERIOD 855
  ---------------------------------------------------------------------------------------------------

     CUMULATIVE VOLUME      L**3       RATES FOR THIS TIME STEP      L**3/T          PACKAGE NAME    
     ------------------                 ------------------------                     ----------------

           IN:                                      IN:
           ---                                      ---
              STO-SS =           0.0000                STO-SS =           0.0000     STORAGE         
              STO-SY = 15494043073.8017                STO-SY =    22594004.4889     STORAGE         
                 WEL =           0.0000                   WEL =           0.0000     WEL_0           
                 DRN =           0.0000                   DRN =           0.0000     DRN_0           
                 RCH = 40176862145.5077                   RCH =    63988222.8699     RCH_0           

            TOTAL IN = 55670905219.3094              TOTAL IN =    86582227.3588

          OUT:                                     OUT:
          ----                                     ----
              STO-SS =           0.0000                STO-SS =           0.0000     STORAGE         
              STO-SY = 15209985166.4184                STO-SY =     5918944.3096     STORAGE         
                 WEL =  8747541222.0491                   WEL =     5964028.0904     WEL_0           
                 DRN = 31713368036.8355                   DRN =    74699244.5092     DRN_0           
                 RCH =           0.0000                   RCH =           0.0000     RCH_0           

           TOTAL OUT = 55670894425.3030             TOTAL OUT =    86582216.9091

            IN - OUT =       10794.0064              IN - OUT =          10.4497

 PERCENT DISCREPANCY =           0.00     PERCENT DISCREPANCY =           0.00




         TIME SUMMARY AT END OF TIME STEP    1 IN STRESS PERIOD  855
                          TIME STEP LENGTH =    1.00000    
                        STRESS PERIOD TIME =    1.00000    
                     TOTAL SIMULATION TIME =    855.000    

end timestep


start timestep kper="856" kstp="1" mode="normal"


 OUTPUT CONTROL FOR STRESS PERIOD 856 IS REPEATED USING SETTINGS FROM A PREVIOUS STRESS PERIOD.


 STRESS PERIOD 856 IS TRANSIENT


 REUSING WELS FROM LAST STRESS PERIOD

 REUSING DRNS FROM LAST STRESS PERIOD

 REUSING RCHS FROM LAST STRESS PERIOD


  VOLUME BUDGET FOR ENTIRE MODEL AT END OF TIME STEP    1, STRESS PERIOD 856
  ---------------------------------------------------------------------------------------------------

     CUMULATIVE VOLUME      L**3       RATES FOR THIS TIME STEP      L**3/T          PACKAGE NAME    
     ------------------                 ------------------------                     ----------------

           IN:                                      IN:
           ---                                      ---
              STO-SS =           0.0000                STO-SS =           0.0000     STORAGE         
              STO-SY = 15508089907.1613                STO-SY =    14046833.3597     STORAGE         
                 WEL =           0.0000                   WEL =           0.0000     WEL_0           
                 DRN =           0.0000                   DRN =           0.0000     DRN_0           
                 RCH = 40247897310.0851                   RCH =    71035164.5774     RCH_0           

            TOTAL IN = 55755987217.2465              TOTAL IN =    85081997.9371

          OUT:                                     OUT:
          ----                                     ----
              STO-SS =           0.0000                STO-SS =           0.0000     STORAGE         
              STO-SY = 15219577901.2126                STO-SY =     9592734.7942     STORAGE         
                 WEL =  8753071638.4234                   WEL =     5530416.3743     WEL_0           
                 DRN = 31783326899.2470                   DRN =    69958862.4115     DRN_0           
                 RCH =           0.0000                   RCH =           0.0000     RCH_0           

           TOTAL OUT = 55755976438.8830             TOTAL OUT =    85082013.5800

            IN - OUT =       10778.3635              IN - OUT =         -15.6429

 PERCENT DISCREPANCY =           0.00     PERCENT DISCREPANCY =          -0.00




         TIME SUMMARY AT END OF TIME STEP    1 IN STRESS PERIOD  856
                          TIME STEP LENGTH =    1.00000    
                        STRESS PERIOD TIME =    1.00000    
                     TOTAL SIMULATION TIME =    856.000    

end timestep


start timestep kper="857" kstp="1" mode="normal"


 OUTPUT CONTROL FOR STRESS PERIOD 857 IS REPEATED USING SETTINGS FROM A PREVIOUS STRESS PERIOD.


 STRESS PERIOD 857 IS TRANSIENT


 REUSING WELS FROM LAST STRESS PERIOD

 REUSING DRNS FROM LAST STRESS PERIOD

 REUSING RCHS FROM LAST STRESS PERIOD


  VOLUME BUDGET FOR ENTIRE MODEL AT END OF TIME STEP    1, STRESS PERIOD 857
  ---------------------------------------------------------------------------------------------------

     CUMULATIVE VOLUME      L**3       RATES FOR THIS TIME STEP      L**3/T          PACKAGE NAME    
     ------------------                 ------------------------                     ----------------

           IN:                                      IN:
           ---                                      ---
              STO-SS =           0.0000                STO-SS =           0.0000     STORAGE         
              STO-SY = 15517872815.3759                STO-SY =     9782908.2146     STORAGE         
                 WEL =           0.0000                   WEL =           0.0000     WEL_0           
                 DRN =           0.0000                   DRN =           0.0000     DRN_0           
                 RCH = 40355720553.4416                   RCH =   107823243.3565     RCH_0           

            TOTAL IN = 55873593368.8175              TOTAL IN =   117606151.5711

          OUT:                                     OUT:
          ----                                     ----
              STO-SS =           0.0000                STO-SS =           0.0000     STORAGE         
              STO-SY = 15244773781.8446                STO-SY =    25195880.6320     STORAGE         
                 WEL =  8758197771.3791                   WEL =     5126132.9556     WEL_0           
                 DRN = 31870611027.0629                   DRN =    87284127.8160     DRN_0           
                 RCH =           0.0000                   RCH =           0.0000     RCH_0           

           TOTAL OUT = 55873582580.2866             TOTAL OUT =   117606141.4036

            IN - OUT =       10788.5310              IN - OUT =          10.1675

 PERCENT DISCREPANCY =           0.00     PERCENT DISCREPANCY =           0.00




         TIME SUMMARY AT END OF TIME STEP    1 IN STRESS PERIOD  857
                          TIME STEP LENGTH =    1.00000    
                        STRESS PERIOD TIME =    1.00000    
                     TOTAL SIMULATION TIME =    857.000    

end timestep


start timestep kper="858" kstp="1" mode="normal"


 OUTPUT CONTROL FOR STRESS PERIOD 858 IS REPEATED USING SETTINGS FROM A PREVIOUS STRESS PERIOD.


 STRESS PERIOD 858 IS TRANSIENT


 REUSING WELS FROM LAST STRESS PERIOD

 REUSING DRNS FROM LAST STRESS PERIOD

 REUSING RCHS FROM LAST STRESS PERIOD


  VOLUME BUDGET FOR ENTIRE MODEL AT END OF TIME STEP    1, STRESS PERIOD 858
  ---------------------------------------------------------------------------------------------------

     CUMULATIVE VOLUME      L**3       RATES FOR THIS TIME STEP      L**3/T          PACKAGE NAME    
     ------------------                 ------------------------                     ----------------

           IN:                                      IN:
           ---                                      ---
              STO-SS =           0.0000                STO-SS =           0.0000     STORAGE         
              STO-SY = 15529472976.6871                STO-SY =    11600161.3112     STORAGE         
                 WEL =           0.0000                   WEL =           0.0000     WEL_0           
                 DRN =           0.0000                   DRN =           0.0000     DRN_0           
                 RCH = 40448821250.7516                   RCH =    93100697.3100     RCH_0           

            TOTAL IN = 55978294227.4387              TOTAL IN =   104700858.6211

          OUT:                                     OUT:
          ----                                     ----
              STO-SS =           0.0000                STO-SS =           0.0000     STORAGE         
              STO-SY = 15264201721.3939                STO-SY =    19427939.5493     STORAGE         
                 WEL =  8762965708.1408                   WEL =     4767936.7617     WEL_0           
                 DRN = 31951115939.7051                   DRN =    80504912.6422     DRN_0           
                 RCH =           0.0000                   RCH =           0.0000     RCH_0           

           TOTAL OUT = 55978283369.2398             TOTAL OUT =   104700788.9532

            IN - OUT =       10858.1989              IN - OUT =          69.6679

 PERCENT DISCREPANCY =           0.00     PERCENT DISCREPANCY =           0.00




         TIME SUMMARY AT END OF TIME STEP    1 IN STRESS PERIOD  858
                          TIME STEP LENGTH =    1.00000    
                        STRESS PERIOD TIME =    1.00000    
                     TOTAL SIMULATION TIME =    858.000    

end timestep


start timestep kper="859" kstp="1" mode="normal"


 OUTPUT CONTROL FOR STRESS PERIOD 859 IS REPEATED USING SETTINGS FROM A PREVIOUS STRESS PERIOD.


 STRESS PERIOD 859 IS TRANSIENT


 REUSING WELS FROM LAST STRESS PERIOD

 REUSING DRNS FROM LAST STRESS PERIOD

 REUSING RCHS FROM LAST STRESS PERIOD


  VOLUME BUDGET FOR ENTIRE MODEL AT END OF TIME STEP    1, STRESS PERIOD 859
  ---------------------------------------------------------------------------------------------------

     CUMULATIVE VOLUME      L**3       RATES FOR THIS TIME STEP      L**3/T          PACKAGE NAME    
     ------------------                 ------------------------                     ----------------

           IN:                                      IN:
           ---                                      ---
              STO-SS =           0.0000                STO-SS =           0.0000     STORAGE         
              STO-SY = 15548355614.8993                STO-SY =    18882638.2122     STORAGE         
                 WEL =           0.0000                   WEL =           0.0000     WEL_0           
                 DRN =           0.0000                   DRN =           0.0000     DRN_0           
                 RCH = 40525039432.3438                   RCH =    76218181.5923     RCH_0           

            TOTAL IN = 56073395047.2432              TOTAL IN =    95100819.8045

          OUT:                                     OUT:
          ----                                     ----
              STO-SS =           0.0000                STO-SS =           0.0000     STORAGE         
              STO-SY = 15272525114.2656                STO-SY =     8323392.8717     STORAGE         
                 WEL =  8767847894.5012                   WEL =     4882186.3603     WEL_0           
                 DRN = 32033011168.2523                   DRN =    81895228.5472     DRN_0           
                 RCH =           0.0000                   RCH =           0.0000     RCH_0           

           TOTAL OUT = 56073384177.0191             TOTAL OUT =    95100807.7793

            IN - OUT =       10870.2241              IN - OUT =          12.0252

 PERCENT DISCREPANCY =           0.00     PERCENT DISCREPANCY =           0.00




         TIME SUMMARY AT END OF TIME STEP    1 IN STRESS PERIOD  859
                          TIME STEP LENGTH =    1.00000    
                        STRESS PERIOD TIME =    1.00000    
                     TOTAL SIMULATION TIME =    859.000    

end timestep


start timestep kper="860" kstp="1" mode="normal"


 OUTPUT CONTROL FOR STRESS PERIOD 860 IS REPEATED USING SETTINGS FROM A PREVIOUS STRESS PERIOD.


 STRESS PERIOD 860 IS TRANSIENT


 REUSING WELS FROM LAST STRESS PERIOD

 REUSING DRNS FROM LAST STRESS PERIOD

 REUSING RCHS FROM LAST STRESS PERIOD


  VOLUME BUDGET FOR ENTIRE MODEL AT END OF TIME STEP    1, STRESS PERIOD 860
  ---------------------------------------------------------------------------------------------------

     CUMULATIVE VOLUME      L**3       RATES FOR THIS TIME STEP      L**3/T          PACKAGE NAME    
     ------------------                 ------------------------                     ----------------

           IN:                                      IN:
           ---                                      ---
              STO-SS =           0.0000                STO-SS =           0.0000     STORAGE         
              STO-SY = 15570738846.5707                STO-SY =    22383231.6714     STORAGE         
                 WEL =           0.0000                   WEL =           0.0000     WEL_0           
                 DRN =           0.0000                   DRN =           0.0000     DRN_0           
                 RCH = 40579583475.1442                   RCH =    54544042.8004     RCH_0           

            TOTAL IN = 56150322321.7149              TOTAL IN =    76927274.4718

          OUT:                                     OUT:
          ----                                     ----
              STO-SS =           0.0000                STO-SS =           0.0000     STORAGE         
              STO-SY = 15277466812.1238                STO-SY =     4941697.8581     STORAGE         
                 WEL =  8773150962.5360                   WEL =     5303068.0348     WEL_0           
                 DRN = 32099693685.8761                   DRN =    66682517.6238     DRN_0           
                 RCH =           0.0000                   RCH =           0.0000     RCH_0           

           TOTAL OUT = 56150311460.5358             TOTAL OUT =    76927283.5167

            IN - OUT =       10861.1791              IN - OUT =          -9.0449

 PERCENT DISCREPANCY =           0.00     PERCENT DISCREPANCY =          -0.00




         TIME SUMMARY AT END OF TIME STEP    1 IN STRESS PERIOD  860
                          TIME STEP LENGTH =    1.00000    
                        STRESS PERIOD TIME =    1.00000    
                     TOTAL SIMULATION TIME =    860.000    

end timestep


start timestep kper="861" kstp="1" mode="normal"


 OUTPUT CONTROL FOR STRESS PERIOD 861 IS REPEATED USING SETTINGS FROM A PREVIOUS STRESS PERIOD.


 STRESS PERIOD 861 IS TRANSIENT


 REUSING WELS FROM LAST STRESS PERIOD

 REUSING DRNS FROM LAST STRESS PERIOD

 REUSING RCHS FROM LAST STRESS PERIOD


  VOLUME BUDGET FOR ENTIRE MODEL AT END OF TIME STEP    1, STRESS PERIOD 861
  ---------------------------------------------------------------------------------------------------

     CUMULATIVE VOLUME      L**3       RATES FOR THIS TIME STEP      L**3/T          PACKAGE NAME    
     ------------------                 ------------------------                     ----------------

           IN:                                      IN:
           ---                                      ---
              STO-SS =           0.0000                STO-SS =           0.0000     STORAGE         
              STO-SY = 15592700473.1680                STO-SY =    21961626.5973     STORAGE         
                 WEL =           0.0000                   WEL =           0.0000     WEL_0           
                 DRN =           0.0000                   DRN =           0.0000     DRN_0           
                 RCH = 40641742593.4830                   RCH =    62159118.3388     RCH_0           

            TOTAL IN = 56234443066.6510              TOTAL IN =    84120744.9361

          OUT:                                     OUT:
          ----                                     ----
              STO-SS =           0.0000                STO-SS =           0.0000     STORAGE         
              STO-SY = 15283030561.3301                STO-SY =     5563749.2064     STORAGE         
                 WEL =  8778727385.7799                   WEL =     5576423.2439     WEL_0           
                 DRN = 32172674201.9344                   DRN =    72980516.0584     DRN_0           
                 RCH =           0.0000                   RCH =           0.0000     RCH_0           

           TOTAL OUT = 56234432149.0444             TOTAL OUT =    84120688.5086

            IN - OUT =       10917.6066              IN - OUT =          56.4275

 PERCENT DISCREPANCY =           0.00     PERCENT DISCREPANCY =           0.00




         TIME SUMMARY AT END OF TIME STEP    1 IN STRESS PERIOD  861
                          TIME STEP LENGTH =    1.00000    
                        STRESS PERIOD TIME =    1.00000    
                     TOTAL SIMULATION TIME =    861.000    

end timestep


start timestep kper="862" kstp="1" mode="normal"


 OUTPUT CONTROL FOR STRESS PERIOD 862 IS REPEATED USING SETTINGS FROM A PREVIOUS STRESS PERIOD.


 STRESS PERIOD 862 IS TRANSIENT


 REUSING WELS FROM LAST STRESS PERIOD

 REUSING DRNS FROM LAST STRESS PERIOD

 REUSING RCHS FROM LAST STRESS PERIOD


  VOLUME BUDGET FOR ENTIRE MODEL AT END OF TIME STEP    1, STRESS PERIOD 862
  ---------------------------------------------------------------------------------------------------

     CUMULATIVE VOLUME      L**3       RATES FOR THIS TIME STEP      L**3/T          PACKAGE NAME    
     ------------------                 ------------------------                     ----------------

           IN:                                      IN:
           ---                                      ---
              STO-SS =           0.0000                STO-SS =           0.0000     STORAGE         
              STO-SY = 15615094332.3657                STO-SY =    22393859.1977     STORAGE         
                 WEL =           0.0000                   WEL =           0.0000     WEL_0           
                 DRN =           0.0000                   DRN =           0.0000     DRN_0           
                 RCH = 40695453911.7719                   RCH =    53711318.2888     RCH_0           

            TOTAL IN = 56310548244.1375              TOTAL IN =    76105177.4865

          OUT:                                     OUT:
          ----                                     ----
              STO-SS =           0.0000                STO-SS =           0.0000     STORAGE         
              STO-SY = 15290454030.3748                STO-SY =     7423469.0446     STORAGE         
                 WEL =  8784495847.5368                   WEL =     5768461.7569     WEL_0           
                 DRN = 32235587392.9526                   DRN =    62913191.0182     DRN_0           
                 RCH =           0.0000                   RCH =           0.0000     RCH_0           

           TOTAL OUT = 56310537270.8642             TOTAL OUT =    76105121.8197

            IN - OUT =       10973.2733              IN - OUT =          55.6668

 PERCENT DISCREPANCY =           0.00     PERCENT DISCREPANCY =           0.00




         TIME SUMMARY AT END OF TIME STEP    1 IN STRESS PERIOD  862
                          TIME STEP LENGTH =    1.00000    
                        STRESS PERIOD TIME =    1.00000    
                     TOTAL SIMULATION TIME =    862.000    

end timestep


start timestep kper="863" kstp="1" mode="normal"


 OUTPUT CONTROL FOR STRESS PERIOD 863 IS REPEATED USING SETTINGS FROM A PREVIOUS STRESS PERIOD.


 STRESS PERIOD 863 IS TRANSIENT


 REUSING WELS FROM LAST STRESS PERIOD

 REUSING DRNS FROM LAST STRESS PERIOD

 REUSING RCHS FROM LAST STRESS PERIOD


  VOLUME BUDGET FOR ENTIRE MODEL AT END OF TIME STEP    1, STRESS PERIOD 863
  ---------------------------------------------------------------------------------------------------

     CUMULATIVE VOLUME      L**3       RATES FOR THIS TIME STEP      L**3/T          PACKAGE NAME    
     ------------------                 ------------------------                     ----------------

           IN:                                      IN:
           ---                                      ---
              STO-SS =           0.0000                STO-SS =           0.0000     STORAGE         
              STO-SY = 15634527069.7866                STO-SY =    19432737.4209     STORAGE         
                 WEL =           0.0000                   WEL =           0.0000     WEL_0           
                 DRN =           0.0000                   DRN =           0.0000     DRN_0           
                 RCH = 40760556398.1164                   RCH =    65102486.3445     RCH_0           

            TOTAL IN = 56395083467.9030              TOTAL IN =    84535223.7654

          OUT:                                     OUT:
          ----                                     ----
              STO-SS =           0.0000                STO-SS =           0.0000     STORAGE         
              STO-SY = 15298566580.1320                STO-SY =     8112549.7572     STORAGE         
                 WEL =  8790345049.9943                   WEL =     5849202.4575     WEL_0           
                 DRN = 32306160841.0798                   DRN =    70573448.1272     DRN_0           
                 RCH =           0.0000                   RCH =           0.0000     RCH_0           

           TOTAL OUT = 56395072471.2061             TOTAL OUT =    84535200.3419

            IN - OUT =       10996.6969              IN - OUT =          23.4235

 PERCENT DISCREPANCY =           0.00     PERCENT DISCREPANCY =           0.00




         TIME SUMMARY AT END OF TIME STEP    1 IN STRESS PERIOD  863
                          TIME STEP LENGTH =    1.00000    
                        STRESS PERIOD TIME =    1.00000    
                     TOTAL SIMULATION TIME =    863.000    

end timestep


start timestep kper="864" kstp="1" mode="normal"


 OUTPUT CONTROL FOR STRESS PERIOD 864 IS REPEATED USING SETTINGS FROM A PREVIOUS STRESS PERIOD.


 STRESS PERIOD 864 IS TRANSIENT


 REUSING WELS FROM LAST STRESS PERIOD

 REUSING DRNS FROM LAST STRESS PERIOD

 REUSING RCHS FROM LAST STRESS PERIOD


  VOLUME BUDGET FOR ENTIRE MODEL AT END OF TIME STEP    1, STRESS PERIOD 864
  ---------------------------------------------------------------------------------------------------

     CUMULATIVE VOLUME      L**3       RATES FOR THIS TIME STEP      L**3/T          PACKAGE NAME    
     ------------------                 ------------------------                     ----------------

           IN:                                      IN:
           ---                                      ---
              STO-SS =           0.0000                STO-SS =           0.0000     STORAGE         
              STO-SY = 15657697517.4331                STO-SY =    23170447.6465     STORAGE         
                 WEL =           0.0000                   WEL =           0.0000     WEL_0           
                 DRN =           0.0000                   DRN =           0.0000     DRN_0           
                 RCH = 40807826289.8540                   RCH =    47269891.7377     RCH_0           

            TOTAL IN = 56465523807.2872              TOTAL IN =    70440339.3842

          OUT:                                     OUT:
          ----                                     ----
              STO-SS =           0.0000                STO-SS =           0.0000     STORAGE         
              STO-SY = 15302567341.8197                STO-SY =     4000761.6877     STORAGE         
                 WEL =  8796377987.9922                   WEL =     6032937.9979     WEL_0           
                 DRN = 32366567460.5105                   DRN =    60406619.4307     DRN_0           
                 RCH =           0.0000                   RCH =           0.0000     RCH_0           

           TOTAL OUT = 56465512790.3224             TOTAL OUT =    70440319.1163

            IN - OUT =       11016.9647              IN - OUT =          20.2679

 PERCENT DISCREPANCY =           0.00     PERCENT DISCREPANCY =           0.00




         TIME SUMMARY AT END OF TIME STEP    1 IN STRESS PERIOD  864
                          TIME STEP LENGTH =    1.00000    
                        STRESS PERIOD TIME =    1.00000    
                     TOTAL SIMULATION TIME =    864.000    

end timestep


start timestep kper="865" kstp="1" mode="normal"


 OUTPUT CONTROL FOR STRESS PERIOD 865 IS REPEATED USING SETTINGS FROM A PREVIOUS STRESS PERIOD.


 STRESS PERIOD 865 IS TRANSIENT


 REUSING WELS FROM LAST STRESS PERIOD

 REUSING DRNS FROM LAST STRESS PERIOD

 REUSING RCHS FROM LAST STRESS PERIOD


  VOLUME BUDGET FOR ENTIRE MODEL AT END OF TIME STEP    1, STRESS PERIOD 865
  ---------------------------------------------------------------------------------------------------

     CUMULATIVE VOLUME      L**3       RATES FOR THIS TIME STEP      L**3/T          PACKAGE NAME    
     ------------------                 ------------------------                     ----------------

           IN:                                      IN:
           ---                                      ---
              STO-SS =           0.0000                STO-SS =           0.0000     STORAGE         
              STO-SY = 15679379933.4456                STO-SY =    21682416.0125     STORAGE         
                 WEL =           0.0000                   WEL =           0.0000     WEL_0           
                 DRN =           0.0000                   DRN =           0.0000     DRN_0           
                 RCH = 40863582531.5113                   RCH =    55756241.6573     RCH_0           

            TOTAL IN = 56542962464.9570              TOTAL IN =    77438657.6698

          OUT:                                     OUT:
          ----                                     ----
              STO-SS =           0.0000                STO-SS =           0.0000     STORAGE         
              STO-SY = 15307640842.9273                STO-SY =     5073501.1075     STORAGE         
                 WEL =  8802392921.2719                   WEL =     6014933.2797     WEL_0           
                 DRN = 32432917580.7302                   DRN =    66350120.2197     DRN_0           
                 RCH =           0.0000                   RCH =           0.0000     RCH_0           

           TOTAL OUT = 56542951344.9294             TOTAL OUT =    77438554.6069

            IN - OUT =       11120.0276              IN - OUT =         103.0629

 PERCENT DISCREPANCY =           0.00     PERCENT DISCREPANCY =           0.00




         TIME SUMMARY AT END OF TIME STEP    1 IN STRESS PERIOD  865
                          TIME STEP LENGTH =    1.00000    
                        STRESS PERIOD TIME =    1.00000    
                     TOTAL SIMULATION TIME =    865.000    

end timestep


start timestep kper="866" kstp="1" mode="normal"


 OUTPUT CONTROL FOR STRESS PERIOD 866 IS REPEATED USING SETTINGS FROM A PREVIOUS STRESS PERIOD.


 STRESS PERIOD 866 IS TRANSIENT


 REUSING WELS FROM LAST STRESS PERIOD

 REUSING DRNS FROM LAST STRESS PERIOD

 REUSING RCHS FROM LAST STRESS PERIOD


  VOLUME BUDGET FOR ENTIRE MODEL AT END OF TIME STEP    1, STRESS PERIOD 866
  ---------------------------------------------------------------------------------------------------

     CUMULATIVE VOLUME      L**3       RATES FOR THIS TIME STEP      L**3/T          PACKAGE NAME    
     ------------------                 ------------------------                     ----------------

           IN:                                      IN:
           ---                                      ---
              STO-SS =           0.0000                STO-SS =           0.0000     STORAGE         
              STO-SY = 15699549607.4223                STO-SY =    20169673.9767     STORAGE         
                 WEL =           0.0000                   WEL =           0.0000     WEL_0           
                 DRN =           0.0000                   DRN =           0.0000     DRN_0           
                 RCH = 40917404306.8372                   RCH =    53821775.3259     RCH_0           

            TOTAL IN = 56616953914.2595              TOTAL IN =    73991449.3026

          OUT:                                     OUT:
          ----                                     ----
              STO-SS =           0.0000                STO-SS =           0.0000     STORAGE         
              STO-SY = 15314344543.6112                STO-SY =     6703700.6839     STORAGE         
                 WEL =  8808381859.0286                   WEL =     5988937.7567     WEL_0           
                 DRN = 32494216360.9691                   DRN =    61298780.2389     DRN_0           
                 RCH =           0.0000                   RCH =           0.0000     RCH_0           

           TOTAL OUT = 56616942763.6089             TOTAL OUT =    73991418.6795

            IN - OUT =       11150.6506              IN - OUT =          30.6231

 PERCENT DISCREPANCY =           0.00     PERCENT DISCREPANCY =           0.00




         TIME SUMMARY AT END OF TIME STEP    1 IN STRESS PERIOD  866
                          TIME STEP LENGTH =    1.00000    
                        STRESS PERIOD TIME =    1.00000    
                     TOTAL SIMULATION TIME =    866.000    

end timestep


start timestep kper="867" kstp="1" mode="normal"


 OUTPUT CONTROL FOR STRESS PERIOD 867 IS REPEATED USING SETTINGS FROM A PREVIOUS STRESS PERIOD.


 STRESS PERIOD 867 IS TRANSIENT


 REUSING WELS FROM LAST STRESS PERIOD

 REUSING DRNS FROM LAST STRESS PERIOD

 REUSING RCHS FROM LAST STRESS PERIOD


  VOLUME BUDGET FOR ENTIRE MODEL AT END OF TIME STEP    1, STRESS PERIOD 867
  ---------------------------------------------------------------------------------------------------

     CUMULATIVE VOLUME      L**3       RATES FOR THIS TIME STEP      L**3/T          PACKAGE NAME    
     ------------------                 ------------------------                     ----------------

           IN:                                      IN:
           ---                                      ---
              STO-SS =           0.0000                STO-SS =           0.0000     STORAGE         
              STO-SY = 15721875281.5601                STO-SY =    22325674.1378     STORAGE         
                 WEL =           0.0000                   WEL =           0.0000     WEL_0           
                 DRN =           0.0000                   DRN =           0.0000     DRN_0           
                 RCH = 40969588587.3035                   RCH =    52184280.4662     RCH_0           

            TOTAL IN = 56691463868.8636              TOTAL IN =    74509954.6040

          OUT:                                     OUT:
          ----                                     ----
              STO-SS =           0.0000                STO-SS =           0.0000     STORAGE         
              STO-SY = 15319023566.8721                STO-SY =     4679023.2609     STORAGE         
                 WEL =  8814514779.3885                   WEL =     6132920.3599     WEL_0           
                 DRN = 32557914344.2130                   DRN =    63697983.2439     DRN_0           
                 RCH =           0.0000                   RCH =           0.0000     RCH_0           

           TOTAL OUT = 56691452690.4736             TOTAL OUT =    74509926.8647

            IN - OUT =       11178.3900              IN - OUT =          27.7393

 PERCENT DISCREPANCY =           0.00     PERCENT DISCREPANCY =           0.00




         TIME SUMMARY AT END OF TIME STEP    1 IN STRESS PERIOD  867
                          TIME STEP LENGTH =    1.00000    
                        STRESS PERIOD TIME =    1.00000    
                     TOTAL SIMULATION TIME =    867.000    

end timestep


start timestep kper="868" kstp="1" mode="normal"


 OUTPUT CONTROL FOR STRESS PERIOD 868 IS REPEATED USING SETTINGS FROM A PREVIOUS STRESS PERIOD.


 STRESS PERIOD 868 IS TRANSIENT


 REUSING WELS FROM LAST STRESS PERIOD

 REUSING DRNS FROM LAST STRESS PERIOD

 REUSING RCHS FROM LAST STRESS PERIOD


  VOLUME BUDGET FOR ENTIRE MODEL AT END OF TIME STEP    1, STRESS PERIOD 868
  ---------------------------------------------------------------------------------------------------

     CUMULATIVE VOLUME      L**3       RATES FOR THIS TIME STEP      L**3/T          PACKAGE NAME    
     ------------------                 ------------------------                     ----------------

           IN:                                      IN:
           ---                                      ---
              STO-SS =           0.0000                STO-SS =           0.0000     STORAGE         
              STO-SY = 15726148725.7563                STO-SY =     4273444.1962     STORAGE         
                 WEL =           0.0000                   WEL =           0.0000     WEL_0           
                 DRN =           0.0000                   DRN =           0.0000     DRN_0           
                 RCH = 41083002570.1668                   RCH =   113413982.8634     RCH_0           

            TOTAL IN = 56809151295.9232              TOTAL IN =   117687427.0596

          OUT:                                     OUT:
          ----                                     ----
              STO-SS =           0.0000                STO-SS =           0.0000     STORAGE         
              STO-SY = 15352471647.4143                STO-SY =    33448080.5422     STORAGE         
                 WEL =  8819366834.5414                   WEL =     4852055.1529     WEL_0           
                 DRN = 32637301613.7529                   DRN =    79387269.5398     DRN_0           
                 RCH =           0.0000                   RCH =           0.0000     RCH_0           

           TOTAL OUT = 56809140095.7086             TOTAL OUT =   117687405.2350

            IN - OUT =       11200.2146              IN - OUT =          21.8246

 PERCENT DISCREPANCY =           0.00     PERCENT DISCREPANCY =           0.00




         TIME SUMMARY AT END OF TIME STEP    1 IN STRESS PERIOD  868
                          TIME STEP LENGTH =    1.00000    
                        STRESS PERIOD TIME =    1.00000    
                     TOTAL SIMULATION TIME =    868.000    

end timestep


start timestep kper="869" kstp="1" mode="normal"


 OUTPUT CONTROL FOR STRESS PERIOD 869 IS REPEATED USING SETTINGS FROM A PREVIOUS STRESS PERIOD.


 STRESS PERIOD 869 IS TRANSIENT


 REUSING WELS FROM LAST STRESS PERIOD

 REUSING DRNS FROM LAST STRESS PERIOD

 REUSING RCHS FROM LAST STRESS PERIOD


  VOLUME BUDGET FOR ENTIRE MODEL AT END OF TIME STEP    1, STRESS PERIOD 869
  ---------------------------------------------------------------------------------------------------

     CUMULATIVE VOLUME      L**3       RATES FOR THIS TIME STEP      L**3/T          PACKAGE NAME    
     ------------------                 ------------------------                     ----------------

           IN:                                      IN:
           ---                                      ---
              STO-SS =           0.0000                STO-SS =           0.0000     STORAGE         
              STO-SY = 15746283974.6151                STO-SY =    20135248.8588     STORAGE         
                 WEL =           0.0000                   WEL =           0.0000     WEL_0           
                 DRN =           0.0000                   DRN =           0.0000     DRN_0           
                 RCH = 41147467450.7217                   RCH =    64464880.5549     RCH_0           

            TOTAL IN = 56893751425.3369              TOTAL IN =    84600129.4137

          OUT:                                     OUT:
          ----                                     ----
              STO-SS =           0.0000                STO-SS =           0.0000     STORAGE         
              STO-SY = 15358402294.3856                STO-SY =     5930646.9713     STORAGE         
                 WEL =  8824750446.2728                   WEL =     5383611.7314     WEL_0           
                 DRN = 32710587464.1808                   DRN =    73285850.4279     DRN_0           
                 RCH =           0.0000                   RCH =           0.0000     RCH_0           

           TOTAL OUT = 56893740204.8391             TOTAL OUT =    84600109.1306

            IN - OUT =       11220.4977              IN - OUT =          20.2831

 PERCENT DISCREPANCY =           0.00     PERCENT DISCREPANCY =           0.00




         TIME SUMMARY AT END OF TIME STEP    1 IN STRESS PERIOD  869
                          TIME STEP LENGTH =    1.00000    
                        STRESS PERIOD TIME =    1.00000    
                     TOTAL SIMULATION TIME =    869.000    

end timestep


start timestep kper="870" kstp="1" mode="normal"


 OUTPUT CONTROL FOR STRESS PERIOD 870 IS REPEATED USING SETTINGS FROM A PREVIOUS STRESS PERIOD.


 STRESS PERIOD 870 IS TRANSIENT


 REUSING WELS FROM LAST STRESS PERIOD

 REUSING DRNS FROM LAST STRESS PERIOD

 REUSING RCHS FROM LAST STRESS PERIOD


  VOLUME BUDGET FOR ENTIRE MODEL AT END OF TIME STEP    1, STRESS PERIOD 870
  ---------------------------------------------------------------------------------------------------

     CUMULATIVE VOLUME      L**3       RATES FOR THIS TIME STEP      L**3/T          PACKAGE NAME    
     ------------------                 ------------------------                     ----------------

           IN:                                      IN:
           ---                                      ---
              STO-SS =           0.0000                STO-SS =           0.0000     STORAGE         
              STO-SY = 15767855156.4684                STO-SY =    21571181.8533     STORAGE         
                 WEL =           0.0000                   WEL =           0.0000     WEL_0           
                 DRN =           0.0000                   DRN =           0.0000     DRN_0           
                 RCH = 41195705244.9665                   RCH =    48237794.2448     RCH_0           

            TOTAL IN = 56963560401.4349              TOTAL IN =    69808976.0981

          OUT:                                     OUT:
          ----                                     ----
              STO-SS =           0.0000                STO-SS =           0.0000     STORAGE         
              STO-SY = 15362927053.9382                STO-SY =     4524759.5527     STORAGE         
                 WEL =  8830093695.5452                   WEL =     5343249.2724     WEL_0           
                 DRN = 32770528388.9566                   DRN =    59940924.7758     DRN_0           
                 RCH =           0.0000                   RCH =           0.0000     RCH_0           

           TOTAL OUT = 56963549138.4400             TOTAL OUT =    69808933.6009

            IN - OUT =       11262.9949              IN - OUT =          42.4972

 PERCENT DISCREPANCY =           0.00     PERCENT DISCREPANCY =           0.00




         TIME SUMMARY AT END OF TIME STEP    1 IN STRESS PERIOD  870
                          TIME STEP LENGTH =    1.00000    
                        STRESS PERIOD TIME =    1.00000    
                     TOTAL SIMULATION TIME =    870.000    

end timestep


start timestep kper="871" kstp="1" mode="normal"


 OUTPUT CONTROL FOR STRESS PERIOD 871 IS REPEATED USING SETTINGS FROM A PREVIOUS STRESS PERIOD.


 STRESS PERIOD 871 IS TRANSIENT


 REUSING WELS FROM LAST STRESS PERIOD

 REUSING DRNS FROM LAST STRESS PERIOD

 REUSING RCHS FROM LAST STRESS PERIOD


  VOLUME BUDGET FOR ENTIRE MODEL AT END OF TIME STEP    1, STRESS PERIOD 871
  ---------------------------------------------------------------------------------------------------

     CUMULATIVE VOLUME      L**3       RATES FOR THIS TIME STEP      L**3/T          PACKAGE NAME    
     ------------------                 ------------------------                     ----------------

           IN:                                      IN:
           ---                                      ---
              STO-SS =           0.0000                STO-SS =           0.0000     STORAGE         
              STO-SY = 15789821995.0120                STO-SY =    21966838.5436     STORAGE         
                 WEL =           0.0000                   WEL =           0.0000     WEL_0           
                 DRN =           0.0000                   DRN =           0.0000     DRN_0           
                 RCH = 41247898197.6662                   RCH =    52192952.6996     RCH_0           

            TOTAL IN = 57037720192.6782              TOTAL IN =    74159791.2433

          OUT:                                     OUT:
          ----                                     ----
              STO-SS =           0.0000                STO-SS =           0.0000     STORAGE         
              STO-SY = 15367365366.4899                STO-SY =     4438312.5517     STORAGE         
                 WEL =  8835759708.4856                   WEL =     5666012.9405     WEL_0           
                 DRN = 32834583852.4180                   DRN =    64055463.4614     DRN_0           
                 RCH =           0.0000                   RCH =           0.0000     RCH_0           

           TOTAL OUT = 57037708927.3935             TOTAL OUT =    74159788.9535

            IN - OUT =       11265.2847              IN - OUT =           2.2898

 PERCENT DISCREPANCY =           0.00     PERCENT DISCREPANCY =           0.00




         TIME SUMMARY AT END OF TIME STEP    1 IN STRESS PERIOD  871
                          TIME STEP LENGTH =    1.00000    
                        STRESS PERIOD TIME =    1.00000    
                     TOTAL SIMULATION TIME =    871.000    

end timestep


start timestep kper="872" kstp="1" mode="normal"


 OUTPUT CONTROL FOR STRESS PERIOD 872 IS REPEATED USING SETTINGS FROM A PREVIOUS STRESS PERIOD.


 STRESS PERIOD 872 IS TRANSIENT


 REUSING WELS FROM LAST STRESS PERIOD

 REUSING DRNS FROM LAST STRESS PERIOD

 REUSING RCHS FROM LAST STRESS PERIOD


  VOLUME BUDGET FOR ENTIRE MODEL AT END OF TIME STEP    1, STRESS PERIOD 872
  ---------------------------------------------------------------------------------------------------

     CUMULATIVE VOLUME      L**3       RATES FOR THIS TIME STEP      L**3/T          PACKAGE NAME    
     ------------------                 ------------------------                     ----------------

           IN:                                      IN:
           ---                                      ---
              STO-SS =           0.0000                STO-SS =           0.0000     STORAGE         
              STO-SY = 15814154895.3413                STO-SY =    24332900.3292     STORAGE         
                 WEL =           0.0000                   WEL =           0.0000     WEL_0           
                 DRN =           0.0000                   DRN =           0.0000     DRN_0           
                 RCH = 41288111002.9702                   RCH =    40212805.3040     RCH_0           

            TOTAL IN = 57102265898.3115              TOTAL IN =    64545705.6333

          OUT:                                     OUT:
          ----                                     ----
              STO-SS =           0.0000                STO-SS =           0.0000     STORAGE         
              STO-SY = 15370627856.9143                STO-SY =     3262490.4244     STORAGE         
                 WEL =  8841771214.3288                   WEL =     6011505.8432     WEL_0           
                 DRN = 32889855500.4783                   DRN =    55271648.0604     DRN_0           
                 RCH =           0.0000                   RCH =           0.0000     RCH_0           

           TOTAL OUT = 57102254571.7215             TOTAL OUT =    64545644.3280

            IN - OUT =       11326.5900              IN - OUT =          61.3053

 PERCENT DISCREPANCY =           0.00     PERCENT DISCREPANCY =           0.00




         TIME SUMMARY AT END OF TIME STEP    1 IN STRESS PERIOD  872
                          TIME STEP LENGTH =    1.00000    
                        STRESS PERIOD TIME =    1.00000    
                     TOTAL SIMULATION TIME =    872.000    

end timestep


start timestep kper="873" kstp="1" mode="normal"


 OUTPUT CONTROL FOR STRESS PERIOD 873 IS REPEATED USING SETTINGS FROM A PREVIOUS STRESS PERIOD.


 STRESS PERIOD 873 IS TRANSIENT


 REUSING WELS FROM LAST STRESS PERIOD

 REUSING DRNS FROM LAST STRESS PERIOD

 REUSING RCHS FROM LAST STRESS PERIOD


  VOLUME BUDGET FOR ENTIRE MODEL AT END OF TIME STEP    1, STRESS PERIOD 873
  ---------------------------------------------------------------------------------------------------

     CUMULATIVE VOLUME      L**3       RATES FOR THIS TIME STEP      L**3/T          PACKAGE NAME    
     ------------------                 ------------------------                     ----------------

           IN:                                      IN:
           ---                                      ---
              STO-SS =           0.0000                STO-SS =           0.0000     STORAGE         
              STO-SY = 15836962053.4820                STO-SY =    22807158.1407     STORAGE         
                 WEL =           0.0000                   WEL =           0.0000     WEL_0           
                 DRN =           0.0000                   DRN =           0.0000     DRN_0           
                 RCH = 41335213143.5398                   RCH =    47102140.5696     RCH_0           

            TOTAL IN = 57172175197.0218              TOTAL IN =    69909298.7103

          OUT:                                     OUT:
          ----                                     ----
              STO-SS =           0.0000                STO-SS =           0.0000     STORAGE         
              STO-SY = 15374799059.8517                STO-SY =     4171202.9373     STORAGE         
                 WEL =  8847874098.5988                   WEL =     6102884.2700     WEL_0           
                 DRN = 32949490704.1303                   DRN =    59635203.6520     DRN_0           
                 RCH =           0.0000                   RCH =           0.0000     RCH_0           

           TOTAL OUT = 57172163862.5808             TOTAL OUT =    69909290.8593

            IN - OUT =       11334.4410              IN - OUT =           7.8510

 PERCENT DISCREPANCY =           0.00     PERCENT DISCREPANCY =           0.00




         TIME SUMMARY AT END OF TIME STEP    1 IN STRESS PERIOD  873
                          TIME STEP LENGTH =    1.00000    
                        STRESS PERIOD TIME =    1.00000    
                     TOTAL SIMULATION TIME =    873.000    

end timestep


start timestep kper="874" kstp="1" mode="normal"


 OUTPUT CONTROL FOR STRESS PERIOD 874 IS REPEATED USING SETTINGS FROM A PREVIOUS STRESS PERIOD.


 STRESS PERIOD 874 IS TRANSIENT


 REUSING WELS FROM LAST STRESS PERIOD

 REUSING DRNS FROM LAST STRESS PERIOD

 REUSING RCHS FROM LAST STRESS PERIOD


  VOLUME BUDGET FOR ENTIRE MODEL AT END OF TIME STEP    1, STRESS PERIOD 874
  ---------------------------------------------------------------------------------------------------

     CUMULATIVE VOLUME      L**3       RATES FOR THIS TIME STEP      L**3/T          PACKAGE NAME    
     ------------------                 ------------------------                     ----------------

           IN:                                      IN:
           ---                                      ---
              STO-SS =           0.0000                STO-SS =           0.0000     STORAGE         
              STO-SY = 15861563321.8400                STO-SY =    24601268.3580     STORAGE         
                 WEL =           0.0000                   WEL =           0.0000     WEL_0           
                 DRN =           0.0000                   DRN =           0.0000     DRN_0           
                 RCH = 41373128776.3466                   RCH =    37915632.8068     RCH_0           

            TOTAL IN = 57234692098.1866              TOTAL IN =    62516901.1648

          OUT:                                     OUT:
          ----                                     ----
              STO-SS =           0.0000                STO-SS =           0.0000     STORAGE         
              STO-SY = 15377929520.8239                STO-SY =     3130460.9722     STORAGE         
                 WEL =  8854706123.2282                   WEL =     6832024.6295     WEL_0           
                 DRN = 33002045109.3201                   DRN =    52554405.1898     DRN_0           
                 RCH =           0.0000                   RCH =           0.0000     RCH_0           

           TOTAL OUT = 57234680753.3722             TOTAL OUT =    62516890.7914

            IN - OUT =       11344.8143              IN - OUT =          10.3733

 PERCENT DISCREPANCY =           0.00     PERCENT DISCREPANCY =           0.00




         TIME SUMMARY AT END OF TIME STEP    1 IN STRESS PERIOD  874
                          TIME STEP LENGTH =    1.00000    
                        STRESS PERIOD TIME =    1.00000    
                     TOTAL SIMULATION TIME =    874.000    

end timestep


start timestep kper="875" kstp="1" mode="normal"


 OUTPUT CONTROL FOR STRESS PERIOD 875 IS REPEATED USING SETTINGS FROM A PREVIOUS STRESS PERIOD.


 STRESS PERIOD 875 IS TRANSIENT


 REUSING WELS FROM LAST STRESS PERIOD

 REUSING DRNS FROM LAST STRESS PERIOD

 REUSING RCHS FROM LAST STRESS PERIOD


  VOLUME BUDGET FOR ENTIRE MODEL AT END OF TIME STEP    1, STRESS PERIOD 875
  ---------------------------------------------------------------------------------------------------

     CUMULATIVE VOLUME      L**3       RATES FOR THIS TIME STEP      L**3/T          PACKAGE NAME    
     ------------------                 ------------------------                     ----------------

           IN:                                      IN:
           ---                                      ---
              STO-SS =           0.0000                STO-SS =           0.0000     STORAGE         
              STO-SY = 15885617933.4452                STO-SY =    24054611.6052     STORAGE         
                 WEL =           0.0000                   WEL =           0.0000     WEL_0           
                 DRN =           0.0000                   DRN =           0.0000     DRN_0           
                 RCH = 41416253165.7044                   RCH =    43124389.3578     RCH_0           

            TOTAL IN = 57301871099.1496              TOTAL IN =    67179000.9630

          OUT:                                     OUT:
          ----                                     ----
              STO-SS =           0.0000                STO-SS =           0.0000     STORAGE         
              STO-SY = 15381888065.5501                STO-SY =     3958544.7262     STORAGE         
                 WEL =  8861864573.3906                   WEL =     7158450.1623     WEL_0           
                 DRN = 33058107093.7636                   DRN =    56061984.4435     DRN_0           
                 RCH =           0.0000                   RCH =           0.0000     RCH_0           

           TOTAL OUT = 57301859732.7043             TOTAL OUT =    67178979.3320

            IN - OUT =       11366.4453              IN - OUT =          21.6310

 PERCENT DISCREPANCY =           0.00     PERCENT DISCREPANCY =           0.00




         TIME SUMMARY AT END OF TIME STEP    1 IN STRESS PERIOD  875
                          TIME STEP LENGTH =    1.00000    
                        STRESS PERIOD TIME =    1.00000    
                     TOTAL SIMULATION TIME =    875.000    

end timestep


start timestep kper="876" kstp="1" mode="normal"


 OUTPUT CONTROL FOR STRESS PERIOD 876 IS REPEATED USING SETTINGS FROM A PREVIOUS STRESS PERIOD.


 STRESS PERIOD 876 IS TRANSIENT


 REUSING WELS FROM LAST STRESS PERIOD

 REUSING DRNS FROM LAST STRESS PERIOD

 REUSING RCHS FROM LAST STRESS PERIOD


  VOLUME BUDGET FOR ENTIRE MODEL AT END OF TIME STEP    1, STRESS PERIOD 876
  ---------------------------------------------------------------------------------------------------

     CUMULATIVE VOLUME      L**3       RATES FOR THIS TIME STEP      L**3/T          PACKAGE NAME    
     ------------------                 ------------------------                     ----------------

           IN:                                      IN:
           ---                                      ---
              STO-SS =           0.0000                STO-SS =           0.0000     STORAGE         
              STO-SY = 15909239162.9562                STO-SY =    23621229.5110     STORAGE         
                 WEL =           0.0000                   WEL =           0.0000     WEL_0           
                 DRN =           0.0000                   DRN =           0.0000     DRN_0           
                 RCH = 41453218123.9334                   RCH =    36964958.2290     RCH_0           

            TOTAL IN = 57362457286.8895              TOTAL IN =    60586187.7400

          OUT:                                     OUT:
          ----                                     ----
              STO-SS =           0.0000                STO-SS =           0.0000     STORAGE         
              STO-SY = 15384930446.5598                STO-SY =     3042381.0097     STORAGE         
                 WEL =  8868386313.3282                   WEL =     6521739.9377     WEL_0           
                 DRN = 33109129124.1847                   DRN =    51022030.4211     DRN_0           
                 RCH =           0.0000                   RCH =           0.0000     RCH_0           

           TOTAL OUT = 57362445884.0728             TOTAL OUT =    60586151.3685

            IN - OUT =       11402.8167              IN - OUT =          36.3714

 PERCENT DISCREPANCY =           0.00     PERCENT DISCREPANCY =           0.00




         TIME SUMMARY AT END OF TIME STEP    1 IN STRESS PERIOD  876
                          TIME STEP LENGTH =    1.00000    
                        STRESS PERIOD TIME =    1.00000    
                     TOTAL SIMULATION TIME =    876.000    

end timestep


start timestep kper="877" kstp="1" mode="normal"


 OUTPUT CONTROL FOR STRESS PERIOD 877 IS REPEATED USING SETTINGS FROM A PREVIOUS STRESS PERIOD.


 STRESS PERIOD 877 IS TRANSIENT


 REUSING WELS FROM LAST STRESS PERIOD

 REUSING DRNS FROM LAST STRESS PERIOD

 REUSING RCHS FROM LAST STRESS PERIOD


  VOLUME BUDGET FOR ENTIRE MODEL AT END OF TIME STEP    1, STRESS PERIOD 877
  ---------------------------------------------------------------------------------------------------

     CUMULATIVE VOLUME      L**3       RATES FOR THIS TIME STEP      L**3/T          PACKAGE NAME    
     ------------------                 ------------------------                     ----------------

           IN:                                      IN:
           ---                                      ---
              STO-SS =           0.0000                STO-SS =           0.0000     STORAGE         
              STO-SY = 15930394784.7987                STO-SY =    21155621.8426     STORAGE         
                 WEL =           0.0000                   WEL =           0.0000     WEL_0           
                 DRN =           0.0000                   DRN =           0.0000     DRN_0           
                 RCH = 41502365018.7044                   RCH =    49146894.7710     RCH_0           

            TOTAL IN = 57432759803.5032              TOTAL IN =    70302516.6136

          OUT:                                     OUT:
          ----                                     ----
              STO-SS =           0.0000                STO-SS =           0.0000     STORAGE         
              STO-SY = 15390654222.9215                STO-SY =     5723776.3617     STORAGE         
                 WEL =  8874857386.9378                   WEL =     6471073.6096     WEL_0           
                 DRN = 33167236767.2305                   DRN =    58107643.0457     DRN_0           
                 RCH =           0.0000                   RCH =           0.0000     RCH_0           

           TOTAL OUT = 57432748377.0899             TOTAL OUT =    70302493.0171

            IN - OUT =       11426.4133              IN - OUT =          23.5966

 PERCENT DISCREPANCY =           0.00     PERCENT DISCREPANCY =           0.00




         TIME SUMMARY AT END OF TIME STEP    1 IN STRESS PERIOD  877
                          TIME STEP LENGTH =    1.00000    
                        STRESS PERIOD TIME =    1.00000    
                     TOTAL SIMULATION TIME =    877.000    

end timestep


start timestep kper="878" kstp="1" mode="normal"


 OUTPUT CONTROL FOR STRESS PERIOD 878 IS REPEATED USING SETTINGS FROM A PREVIOUS STRESS PERIOD.


 STRESS PERIOD 878 IS TRANSIENT


 REUSING WELS FROM LAST STRESS PERIOD

 REUSING DRNS FROM LAST STRESS PERIOD

 REUSING RCHS FROM LAST STRESS PERIOD


  VOLUME BUDGET FOR ENTIRE MODEL AT END OF TIME STEP    1, STRESS PERIOD 878
  ---------------------------------------------------------------------------------------------------

     CUMULATIVE VOLUME      L**3       RATES FOR THIS TIME STEP      L**3/T          PACKAGE NAME    
     ------------------                 ------------------------                     ----------------

           IN:                                      IN:
           ---                                      ---
              STO-SS =           0.0000                STO-SS =           0.0000     STORAGE         
              STO-SY = 15938298315.7165                STO-SY =     7903530.9178     STORAGE         
                 WEL =           0.0000                   WEL =           0.0000     WEL_0           
                 DRN =           0.0000                   DRN =           0.0000     DRN_0           
                 RCH = 41594753749.7505                   RCH =    92388731.0461     RCH_0           

            TOTAL IN = 57533052065.4670              TOTAL IN =   100292261.9638

          OUT:                                     OUT:
          ----                                     ----
              STO-SS =           0.0000                STO-SS =           0.0000     STORAGE         
              STO-SY = 15416107822.1121                STO-SY =    25453599.1905     STORAGE         
                 WEL =  8880299852.5244                   WEL =     5442465.5866     WEL_0           
                 DRN = 33236632960.7878                   DRN =    69396193.5573     DRN_0           
                 RCH =           0.0000                   RCH =           0.0000     RCH_0           

           TOTAL OUT = 57533040635.4243             TOTAL OUT =   100292258.3345

            IN - OUT =       11430.0427              IN - OUT =           3.6294

 PERCENT DISCREPANCY =           0.00     PERCENT DISCREPANCY =           0.00




         TIME SUMMARY AT END OF TIME STEP    1 IN STRESS PERIOD  878
                          TIME STEP LENGTH =    1.00000    
                        STRESS PERIOD TIME =    1.00000    
                     TOTAL SIMULATION TIME =    878.000    

end timestep


start timestep kper="879" kstp="1" mode="normal"


 OUTPUT CONTROL FOR STRESS PERIOD 879 IS REPEATED USING SETTINGS FROM A PREVIOUS STRESS PERIOD.


 STRESS PERIOD 879 IS TRANSIENT


 REUSING WELS FROM LAST STRESS PERIOD

 REUSING DRNS FROM LAST STRESS PERIOD

 REUSING RCHS FROM LAST STRESS PERIOD


  VOLUME BUDGET FOR ENTIRE MODEL AT END OF TIME STEP    1, STRESS PERIOD 879
  ---------------------------------------------------------------------------------------------------

     CUMULATIVE VOLUME      L**3       RATES FOR THIS TIME STEP      L**3/T          PACKAGE NAME    
     ------------------                 ------------------------                     ----------------

           IN:                                      IN:
           ---                                      ---
              STO-SS =           0.0000                STO-SS =           0.0000     STORAGE         
              STO-SY = 15956760205.0901                STO-SY =    18461889.3736     STORAGE         
                 WEL =           0.0000                   WEL =           0.0000     WEL_0           
                 DRN =           0.0000                   DRN =           0.0000     DRN_0           
                 RCH = 41657182524.8205                   RCH =    62428775.0700     RCH_0           

            TOTAL IN = 57613942729.9106              TOTAL IN =    80890664.4436

          OUT:                                     OUT:
          ----                                     ----
              STO-SS =           0.0000                STO-SS =           0.0000     STORAGE         
              STO-SY = 15426251851.9133                STO-SY =    10144029.8012     STORAGE         
                 WEL =  8885951697.6334                   WEL =     5651845.1089     WEL_0           
                 DRN = 33301727712.5418                   DRN =    65094751.7540     DRN_0           
                 RCH =           0.0000                   RCH =           0.0000     RCH_0           

           TOTAL OUT = 57613931262.0884             TOTAL OUT =    80890626.6641

            IN - OUT =       11467.8222              IN - OUT =          37.7795

 PERCENT DISCREPANCY =           0.00     PERCENT DISCREPANCY =           0.00




         TIME SUMMARY AT END OF TIME STEP    1 IN STRESS PERIOD  879
                          TIME STEP LENGTH =    1.00000    
                        STRESS PERIOD TIME =    1.00000    
                     TOTAL SIMULATION TIME =    879.000    

end timestep


start timestep kper="880" kstp="1" mode="normal"


 OUTPUT CONTROL FOR STRESS PERIOD 880 IS REPEATED USING SETTINGS FROM A PREVIOUS STRESS PERIOD.


 STRESS PERIOD 880 IS TRANSIENT


 REUSING WELS FROM LAST STRESS PERIOD

 REUSING DRNS FROM LAST STRESS PERIOD

 REUSING RCHS FROM LAST STRESS PERIOD


  VOLUME BUDGET FOR ENTIRE MODEL AT END OF TIME STEP    1, STRESS PERIOD 880
  ---------------------------------------------------------------------------------------------------

     CUMULATIVE VOLUME      L**3       RATES FOR THIS TIME STEP      L**3/T          PACKAGE NAME    
     ------------------                 ------------------------                     ----------------

           IN:                                      IN:
           ---                                      ---
              STO-SS =           0.0000                STO-SS =           0.0000     STORAGE         
              STO-SY = 15978332897.8993                STO-SY =    21572692.8092     STORAGE         
                 WEL =           0.0000                   WEL =           0.0000     WEL_0           
                 DRN =           0.0000                   DRN =           0.0000     DRN_0           
                 RCH = 41699588791.4544                   RCH =    42406266.6339     RCH_0           

            TOTAL IN = 57677921689.3537              TOTAL IN =    63978959.4431

          OUT:                                     OUT:
          ----                                     ----
              STO-SS =           0.0000                STO-SS =           0.0000     STORAGE         
              STO-SY = 15430277733.8685                STO-SY =     4025881.9552     STORAGE         
                 WEL =  8891664952.8518                   WEL =     5713255.2184     WEL_0           
                 DRN = 33355967508.6033                   DRN =    54239796.0616     DRN_0           
                 RCH =           0.0000                   RCH =           0.0000     RCH_0           

           TOTAL OUT = 57677910195.3236             TOTAL OUT =    63978933.2352

            IN - OUT =       11494.0301              IN - OUT =          26.2079

 PERCENT DISCREPANCY =           0.00     PERCENT DISCREPANCY =           0.00




         TIME SUMMARY AT END OF TIME STEP    1 IN STRESS PERIOD  880
                          TIME STEP LENGTH =    1.00000    
                        STRESS PERIOD TIME =    1.00000    
                     TOTAL SIMULATION TIME =    880.000    

end timestep


start timestep kper="881" kstp="1" mode="normal"


 OUTPUT CONTROL FOR STRESS PERIOD 881 IS REPEATED USING SETTINGS FROM A PREVIOUS STRESS PERIOD.


 STRESS PERIOD 881 IS TRANSIENT


 REUSING WELS FROM LAST STRESS PERIOD

 REUSING DRNS FROM LAST STRESS PERIOD

 REUSING RCHS FROM LAST STRESS PERIOD


  VOLUME BUDGET FOR ENTIRE MODEL AT END OF TIME STEP    1, STRESS PERIOD 881
  ---------------------------------------------------------------------------------------------------

     CUMULATIVE VOLUME      L**3       RATES FOR THIS TIME STEP      L**3/T          PACKAGE NAME    
     ------------------                 ------------------------                     ----------------

           IN:                                      IN:
           ---                                      ---
              STO-SS =           0.0000                STO-SS =           0.0000     STORAGE         
              STO-SY = 15999599122.9972                STO-SY =    21266225.0979     STORAGE         
                 WEL =           0.0000                   WEL =           0.0000     WEL_0           
                 DRN =           0.0000                   DRN =           0.0000     DRN_0           
                 RCH = 41745758466.2192                   RCH =    46169674.7648     RCH_0           

            TOTAL IN = 57745357589.2163              TOTAL IN =    67435899.8627

          OUT:                                     OUT:
          ----                                     ----
              STO-SS =           0.0000                STO-SS =           0.0000     STORAGE         
              STO-SY = 15434190733.3352                STO-SY =     3912999.4667     STORAGE         
                 WEL =  8897487654.5240                   WEL =     5822701.6722     WEL_0           
                 DRN = 33413667644.9483                   DRN =    57700136.3450     DRN_0           
                 RCH =           0.0000                   RCH =           0.0000     RCH_0           

           TOTAL OUT = 57745346032.8075             TOTAL OUT =    67435837.4839

            IN - OUT =       11556.4088              IN - OUT =          62.3788

 PERCENT DISCREPANCY =           0.00     PERCENT DISCREPANCY =           0.00




         TIME SUMMARY AT END OF TIME STEP    1 IN STRESS PERIOD  881
                          TIME STEP LENGTH =    1.00000    
                        STRESS PERIOD TIME =    1.00000    
                     TOTAL SIMULATION TIME =    881.000    

end timestep


start timestep kper="882" kstp="1" mode="normal"


 OUTPUT CONTROL FOR STRESS PERIOD 882 IS REPEATED USING SETTINGS FROM A PREVIOUS STRESS PERIOD.


 STRESS PERIOD 882 IS TRANSIENT


 REUSING WELS FROM LAST STRESS PERIOD

 REUSING DRNS FROM LAST STRESS PERIOD

 REUSING RCHS FROM LAST STRESS PERIOD


  VOLUME BUDGET FOR ENTIRE MODEL AT END OF TIME STEP    1, STRESS PERIOD 882
  ---------------------------------------------------------------------------------------------------

     CUMULATIVE VOLUME      L**3       RATES FOR THIS TIME STEP      L**3/T          PACKAGE NAME    
     ------------------                 ------------------------                     ----------------

           IN:                                      IN:
           ---                                      ---
              STO-SS =           0.0000                STO-SS =           0.0000     STORAGE         
              STO-SY = 16021219278.6708                STO-SY =    21620155.6737     STORAGE         
                 WEL =           0.0000                   WEL =           0.0000     WEL_0           
                 DRN =           0.0000                   DRN =           0.0000     DRN_0           
                 RCH = 41784847414.0232                   RCH =    39088947.8040     RCH_0           

            TOTAL IN = 57806066692.6940              TOTAL IN =    60709103.4777

          OUT:                                     OUT:
          ----                                     ----
              STO-SS =           0.0000                STO-SS =           0.0000     STORAGE         
              STO-SY = 15437429294.5645                STO-SY =     3238561.2293     STORAGE         
                 WEL =  8903509840.4345                   WEL =     6022185.9106     WEL_0           
                 DRN = 33465115983.2201                   DRN =    51448338.2718     DRN_0           
                 RCH =           0.0000                   RCH =           0.0000     RCH_0           

           TOTAL OUT = 57806055118.2192             TOTAL OUT =    60709085.4117

            IN - OUT =       11574.4748              IN - OUT =          18.0660

 PERCENT DISCREPANCY =           0.00     PERCENT DISCREPANCY =           0.00




         TIME SUMMARY AT END OF TIME STEP    1 IN STRESS PERIOD  882
                          TIME STEP LENGTH =    1.00000    
                        STRESS PERIOD TIME =    1.00000    
                     TOTAL SIMULATION TIME =    882.000    

end timestep


start timestep kper="883" kstp="1" mode="normal"


 OUTPUT CONTROL FOR STRESS PERIOD 883 IS REPEATED USING SETTINGS FROM A PREVIOUS STRESS PERIOD.


 STRESS PERIOD 883 IS TRANSIENT


 REUSING WELS FROM LAST STRESS PERIOD

 REUSING DRNS FROM LAST STRESS PERIOD

 REUSING RCHS FROM LAST STRESS PERIOD


  VOLUME BUDGET FOR ENTIRE MODEL AT END OF TIME STEP    1, STRESS PERIOD 883
  ---------------------------------------------------------------------------------------------------

     CUMULATIVE VOLUME      L**3       RATES FOR THIS TIME STEP      L**3/T          PACKAGE NAME    
     ------------------                 ------------------------                     ----------------

           IN:                                      IN:
           ---                                      ---
              STO-SS =           0.0000                STO-SS =           0.0000     STORAGE         
              STO-SY = 16043964850.1473                STO-SY =    22745571.4765     STORAGE         
                 WEL =           0.0000                   WEL =           0.0000     WEL_0           
                 DRN =           0.0000                   DRN =           0.0000     DRN_0           
                 RCH = 41826381050.6758                   RCH =    41533636.6527     RCH_0           

            TOTAL IN = 57870345900.8231              TOTAL IN =    64279208.1291

          OUT:                                     OUT:
          ----                                     ----
              STO-SS =           0.0000                STO-SS =           0.0000     STORAGE         
              STO-SY = 15441086952.8975                STO-SY =     3657658.3330     STORAGE         
                 WEL =  8910104226.8420                   WEL =     6594386.4075     WEL_0           
                 DRN = 33519143130.9073                   DRN =    54027147.6872     DRN_0           
                 RCH =           0.0000                   RCH =           0.0000     RCH_0           

           TOTAL OUT = 57870334310.6469             TOTAL OUT =    64279192.4277

            IN - OUT =       11590.1762              IN - OUT =          15.7014

 PERCENT DISCREPANCY =           0.00     PERCENT DISCREPANCY =           0.00




         TIME SUMMARY AT END OF TIME STEP    1 IN STRESS PERIOD  883
                          TIME STEP LENGTH =    1.00000    
                        STRESS PERIOD TIME =    1.00000    
                     TOTAL SIMULATION TIME =    883.000    

end timestep


start timestep kper="884" kstp="1" mode="normal"


 OUTPUT CONTROL FOR STRESS PERIOD 884 IS REPEATED USING SETTINGS FROM A PREVIOUS STRESS PERIOD.


 STRESS PERIOD 884 IS TRANSIENT


 REUSING WELS FROM LAST STRESS PERIOD

 REUSING DRNS FROM LAST STRESS PERIOD

 REUSING RCHS FROM LAST STRESS PERIOD


  VOLUME BUDGET FOR ENTIRE MODEL AT END OF TIME STEP    1, STRESS PERIOD 884
  ---------------------------------------------------------------------------------------------------

     CUMULATIVE VOLUME      L**3       RATES FOR THIS TIME STEP      L**3/T          PACKAGE NAME    
     ------------------                 ------------------------                     ----------------

           IN:                                      IN:
           ---                                      ---
              STO-SS =           0.0000                STO-SS =           0.0000     STORAGE         
              STO-SY = 16067662848.5618                STO-SY =    23697998.4145     STORAGE         
                 WEL =           0.0000                   WEL =           0.0000     WEL_0           
                 DRN =           0.0000                   DRN =           0.0000     DRN_0           
                 RCH = 41861178664.8616                   RCH =    34797614.1858     RCH_0           

            TOTAL IN = 57928841513.4234              TOTAL IN =    58495612.6003

          OUT:                                     OUT:
          ----                                     ----
              STO-SS =           0.0000                STO-SS =           0.0000     STORAGE         
              STO-SY = 15444053830.2650                STO-SY =     2966877.3674     STORAGE         
                 WEL =  8917131896.8143                   WEL =     7027669.9723     WEL_0           
                 DRN = 33567644178.9722                   DRN =    48501048.0649     DRN_0           
                 RCH =           0.0000                   RCH =           0.0000     RCH_0           

           TOTAL OUT = 57928829906.0515             TOTAL OUT =    58495595.4046

            IN - OUT =       11607.3720              IN - OUT =          17.1957

 PERCENT DISCREPANCY =           0.00     PERCENT DISCREPANCY =           0.00




         TIME SUMMARY AT END OF TIME STEP    1 IN STRESS PERIOD  884
                          TIME STEP LENGTH =    1.00000    
                        STRESS PERIOD TIME =    1.00000    
                     TOTAL SIMULATION TIME =    884.000    

end timestep


start timestep kper="885" kstp="1" mode="normal"


 OUTPUT CONTROL FOR STRESS PERIOD 885 IS REPEATED USING SETTINGS FROM A PREVIOUS STRESS PERIOD.


 STRESS PERIOD 885 IS TRANSIENT


 REUSING WELS FROM LAST STRESS PERIOD

 REUSING DRNS FROM LAST STRESS PERIOD

 REUSING RCHS FROM LAST STRESS PERIOD


  VOLUME BUDGET FOR ENTIRE MODEL AT END OF TIME STEP    1, STRESS PERIOD 885
  ---------------------------------------------------------------------------------------------------

     CUMULATIVE VOLUME      L**3       RATES FOR THIS TIME STEP      L**3/T          PACKAGE NAME    
     ------------------                 ------------------------                     ----------------

           IN:                                      IN:
           ---                                      ---
              STO-SS =           0.0000                STO-SS =           0.0000     STORAGE         
              STO-SY = 16090088124.8355                STO-SY =    22425276.2737     STORAGE         
                 WEL =           0.0000                   WEL =           0.0000     WEL_0           
                 DRN =           0.0000                   DRN =           0.0000     DRN_0           
                 RCH = 41900776917.0816                   RCH =    39598252.2200     RCH_0           

            TOTAL IN = 57990865041.9172              TOTAL IN =    62023528.4937

          OUT:                                     OUT:
          ----                                     ----
              STO-SS =           0.0000                STO-SS =           0.0000     STORAGE         
              STO-SY = 15447400234.7018                STO-SY =     3346404.4368     STORAGE         
                 WEL =  8923578124.0321                   WEL =     6446227.2178     WEL_0           
                 DRN = 33619874960.6691                   DRN =    52230781.6969     DRN_0           
                 RCH =           0.0000                   RCH =           0.0000     RCH_0           

           TOTAL OUT = 57990853319.4030             TOTAL OUT =    62023413.3515

            IN - OUT =       11722.5142              IN - OUT =         115.1422

 PERCENT DISCREPANCY =           0.00     PERCENT DISCREPANCY =           0.00




         TIME SUMMARY AT END OF TIME STEP    1 IN STRESS PERIOD  885
                          TIME STEP LENGTH =    1.00000    
                        STRESS PERIOD TIME =    1.00000    
                     TOTAL SIMULATION TIME =    885.000    

end timestep


start timestep kper="886" kstp="1" mode="normal"


 OUTPUT CONTROL FOR STRESS PERIOD 886 IS REPEATED USING SETTINGS FROM A PREVIOUS STRESS PERIOD.


 STRESS PERIOD 886 IS TRANSIENT


 REUSING WELS FROM LAST STRESS PERIOD

 REUSING DRNS FROM LAST STRESS PERIOD

 REUSING RCHS FROM LAST STRESS PERIOD


  VOLUME BUDGET FOR ENTIRE MODEL AT END OF TIME STEP    1, STRESS PERIOD 886
  ---------------------------------------------------------------------------------------------------

     CUMULATIVE VOLUME      L**3       RATES FOR THIS TIME STEP      L**3/T          PACKAGE NAME    
     ------------------                 ------------------------                     ----------------

           IN:                                      IN:
           ---                                      ---
              STO-SS =           0.0000                STO-SS =           0.0000     STORAGE         
              STO-SY = 16112220796.2008                STO-SY =    22132671.3652     STORAGE         
                 WEL =           0.0000                   WEL =           0.0000     WEL_0           
                 DRN =           0.0000                   DRN =           0.0000     DRN_0           
                 RCH = 41936105510.5794                   RCH =    35328593.4977     RCH_0           

            TOTAL IN = 58048326306.7801              TOTAL IN =    57461264.8630

          OUT:                                     OUT:
          ----                                     ----
              STO-SS =           0.0000                STO-SS =           0.0000     STORAGE         
              STO-SY = 15450304203.5225                STO-SY =     2903968.8206     STORAGE         
                 WEL =  8930037566.9516                   WEL =     6459442.9195     WEL_0           
                 DRN = 33667972788.4786                   DRN =    48097827.8095     DRN_0           
                 RCH =           0.0000                   RCH =           0.0000     RCH_0           

           TOTAL OUT = 58048314558.9527             TOTAL OUT =    57461239.5497

            IN - OUT =       11747.8274              IN - OUT =          25.3133

 PERCENT DISCREPANCY =           0.00     PERCENT DISCREPANCY =           0.00




         TIME SUMMARY AT END OF TIME STEP    1 IN STRESS PERIOD  886
                          TIME STEP LENGTH =    1.00000    
                        STRESS PERIOD TIME =    1.00000    
                     TOTAL SIMULATION TIME =    886.000    

end timestep


start timestep kper="887" kstp="1" mode="normal"


 OUTPUT CONTROL FOR STRESS PERIOD 887 IS REPEATED USING SETTINGS FROM A PREVIOUS STRESS PERIOD.


 STRESS PERIOD 887 IS TRANSIENT


 REUSING WELS FROM LAST STRESS PERIOD

 REUSING DRNS FROM LAST STRESS PERIOD

 REUSING RCHS FROM LAST STRESS PERIOD


  VOLUME BUDGET FOR ENTIRE MODEL AT END OF TIME STEP    1, STRESS PERIOD 887
  ---------------------------------------------------------------------------------------------------

     CUMULATIVE VOLUME      L**3       RATES FOR THIS TIME STEP      L**3/T          PACKAGE NAME    
     ------------------                 ------------------------                     ----------------

           IN:                                      IN:
           ---                                      ---
              STO-SS =           0.0000                STO-SS =           0.0000     STORAGE         
              STO-SY = 16133654638.9790                STO-SY =    21433842.7782     STORAGE         
                 WEL =           0.0000                   WEL =           0.0000     WEL_0           
                 DRN =           0.0000                   DRN =           0.0000     DRN_0           
                 RCH = 41975556154.6571                   RCH =    39450644.0777     RCH_0           

            TOTAL IN = 58109210793.6360              TOTAL IN =    60884486.8559

          OUT:                                     OUT:
          ----                                     ----
              STO-SS =           0.0000                STO-SS =           0.0000     STORAGE         
              STO-SY = 15453699345.1428                STO-SY =     3395141.6204     STORAGE         
                 WEL =  8936472627.6842                   WEL =     6435060.7326     WEL_0           
                 DRN = 33719027070.9101                   DRN =    51054282.4314     DRN_0           
                 RCH =           0.0000                   RCH =           0.0000     RCH_0           

           TOTAL OUT = 58109199043.7371             TOTAL OUT =    60884484.7844

            IN - OUT =       11749.8990              IN - OUT =           2.0715

 PERCENT DISCREPANCY =           0.00     PERCENT DISCREPANCY =           0.00




         TIME SUMMARY AT END OF TIME STEP    1 IN STRESS PERIOD  887
                          TIME STEP LENGTH =    1.00000    
                        STRESS PERIOD TIME =    1.00000    
                     TOTAL SIMULATION TIME =    887.000    

end timestep


start timestep kper="888" kstp="1" mode="normal"


 OUTPUT CONTROL FOR STRESS PERIOD 888 IS REPEATED USING SETTINGS FROM A PREVIOUS STRESS PERIOD.


 STRESS PERIOD 888 IS TRANSIENT


 REUSING WELS FROM LAST STRESS PERIOD

 REUSING DRNS FROM LAST STRESS PERIOD

 REUSING RCHS FROM LAST STRESS PERIOD


  VOLUME BUDGET FOR ENTIRE MODEL AT END OF TIME STEP    1, STRESS PERIOD 888
  ---------------------------------------------------------------------------------------------------

     CUMULATIVE VOLUME      L**3       RATES FOR THIS TIME STEP      L**3/T          PACKAGE NAME    
     ------------------                 ------------------------                     ----------------

           IN:                                      IN:
           ---                                      ---
              STO-SS =           0.0000                STO-SS =           0.0000     STORAGE         
              STO-SY = 16155909218.6189                STO-SY =    22254579.6399     STORAGE         
                 WEL =           0.0000                   WEL =           0.0000     WEL_0           
                 DRN =           0.0000                   DRN =           0.0000     DRN_0           
                 RCH = 42008586593.1800                   RCH =    33030438.5230     RCH_0           

            TOTAL IN = 58164495811.7989              TOTAL IN =    55285018.1629

          OUT:                                     OUT:
          ----                                     ----
              STO-SS =           0.0000                STO-SS =           0.0000     STORAGE         
              STO-SY = 15456417773.3955                STO-SY =     2718428.2526     STORAGE         
                 WEL =  8942825684.9672                   WEL =     6353057.2830     WEL_0           
                 DRN = 33765240564.3610                   DRN =    46213493.4509     DRN_0           
                 RCH =           0.0000                   RCH =           0.0000     RCH_0           

           TOTAL OUT = 58164484022.7236             TOTAL OUT =    55284978.9866

            IN - OUT =       11789.0753              IN - OUT =          39.1763

 PERCENT DISCREPANCY =           0.00     PERCENT DISCREPANCY =           0.00




         TIME SUMMARY AT END OF TIME STEP    1 IN STRESS PERIOD  888
                          TIME STEP LENGTH =    1.00000    
                        STRESS PERIOD TIME =    1.00000    
                     TOTAL SIMULATION TIME =    888.000    

end timestep


start timestep kper="889" kstp="1" mode="normal"


 OUTPUT CONTROL FOR STRESS PERIOD 889 IS REPEATED USING SETTINGS FROM A PREVIOUS STRESS PERIOD.


 STRESS PERIOD 889 IS TRANSIENT


 REUSING WELS FROM LAST STRESS PERIOD

 REUSING DRNS FROM LAST STRESS PERIOD

 REUSING RCHS FROM LAST STRESS PERIOD


  VOLUME BUDGET FOR ENTIRE MODEL AT END OF TIME STEP    1, STRESS PERIOD 889
  ---------------------------------------------------------------------------------------------------

     CUMULATIVE VOLUME      L**3       RATES FOR THIS TIME STEP      L**3/T          PACKAGE NAME    
     ------------------                 ------------------------                     ----------------

           IN:                                      IN:
           ---                                      ---
              STO-SS =           0.0000                STO-SS =           0.0000     STORAGE         
              STO-SY = 16178087255.5317                STO-SY =    22178036.9128     STORAGE         
                 WEL =           0.0000                   WEL =           0.0000     WEL_0           
                 DRN =           0.0000                   DRN =           0.0000     DRN_0           
                 RCH = 42044246798.7759                   RCH =    35660205.5958     RCH_0           

            TOTAL IN = 58222334054.3076              TOTAL IN =    57838242.5087

          OUT:                                     OUT:
          ----                                     ----
              STO-SS =           0.0000                STO-SS =           0.0000     STORAGE         
              STO-SY = 15459504027.0345                STO-SY =     3086253.6390     STORAGE         
                 WEL =  8949248366.9226                   WEL =     6422681.9554     WEL_0           
                 DRN = 33813569844.1466                   DRN =    48329279.7856     DRN_0           
                 RCH =           0.0000                   RCH =           0.0000     RCH_0           

           TOTAL OUT = 58222322238.1037             TOTAL OUT =    57838215.3800

            IN - OUT =       11816.2039              IN - OUT =          27.1286

 PERCENT DISCREPANCY =           0.00     PERCENT DISCREPANCY =           0.00




         TIME SUMMARY AT END OF TIME STEP    1 IN STRESS PERIOD  889
                          TIME STEP LENGTH =    1.00000    
                        STRESS PERIOD TIME =    1.00000    
                     TOTAL SIMULATION TIME =    889.000    

end timestep


start timestep kper="890" kstp="1" mode="normal"


 OUTPUT CONTROL FOR STRESS PERIOD 890 IS REPEATED USING SETTINGS FROM A PREVIOUS STRESS PERIOD.


 STRESS PERIOD 890 IS TRANSIENT


 REUSING WELS FROM LAST STRESS PERIOD

 REUSING DRNS FROM LAST STRESS PERIOD

 REUSING RCHS FROM LAST STRESS PERIOD


  VOLUME BUDGET FOR ENTIRE MODEL AT END OF TIME STEP    1, STRESS PERIOD 890
  ---------------------------------------------------------------------------------------------------

     CUMULATIVE VOLUME      L**3       RATES FOR THIS TIME STEP      L**3/T          PACKAGE NAME    
     ------------------                 ------------------------                     ----------------

           IN:                                      IN:
           ---                                      ---
              STO-SS =           0.0000                STO-SS =           0.0000     STORAGE         
              STO-SY = 16200157767.3633                STO-SY =    22070511.8316     STORAGE         
                 WEL =           0.0000                   WEL =           0.0000     WEL_0           
                 DRN =           0.0000                   DRN =           0.0000     DRN_0           
                 RCH = 42076037694.0209                   RCH =    31790895.2450     RCH_0           

            TOTAL IN = 58276195461.3842              TOTAL IN =    53861407.0766

          OUT:                                     OUT:
          ----                                     ----
              STO-SS =           0.0000                STO-SS =           0.0000     STORAGE         
              STO-SY = 15462093566.0349                STO-SY =     2589539.0004     STORAGE         
                 WEL =  8955730943.7522                   WEL =     6482576.8296     WEL_0           
                 DRN = 33858359126.3119                   DRN =    44789282.1653     DRN_0           
                 RCH =           0.0000                   RCH =           0.0000     RCH_0           

           TOTAL OUT = 58276183636.0990             TOTAL OUT =    53861397.9953

            IN - OUT =       11825.2852              IN - OUT =           9.0814

 PERCENT DISCREPANCY =           0.00     PERCENT DISCREPANCY =           0.00




         TIME SUMMARY AT END OF TIME STEP    1 IN STRESS PERIOD  890
                          TIME STEP LENGTH =    1.00000    
                        STRESS PERIOD TIME =    1.00000    
                     TOTAL SIMULATION TIME =    890.000    

end timestep


start timestep kper="891" kstp="1" mode="normal"


 OUTPUT CONTROL FOR STRESS PERIOD 891 IS REPEATED USING SETTINGS FROM A PREVIOUS STRESS PERIOD.


 STRESS PERIOD 891 IS TRANSIENT


 REUSING WELS FROM LAST STRESS PERIOD

 REUSING DRNS FROM LAST STRESS PERIOD

 REUSING RCHS FROM LAST STRESS PERIOD


  VOLUME BUDGET FOR ENTIRE MODEL AT END OF TIME STEP    1, STRESS PERIOD 891
  ---------------------------------------------------------------------------------------------------

     CUMULATIVE VOLUME      L**3       RATES FOR THIS TIME STEP      L**3/T          PACKAGE NAME    
     ------------------                 ------------------------                     ----------------

           IN:                                      IN:
           ---                                      ---
              STO-SS =           0.0000                STO-SS =           0.0000     STORAGE         
              STO-SY = 16221791314.0833                STO-SY =    21633546.7200     STORAGE         
                 WEL =           0.0000                   WEL =           0.0000     WEL_0           
                 DRN =           0.0000                   DRN =           0.0000     DRN_0           
                 RCH = 42110444131.8925                   RCH =    34406437.8716     RCH_0           

            TOTAL IN = 58332235445.9758              TOTAL IN =    56039984.5916

          OUT:                                     OUT:
          ----                                     ----
              STO-SS =           0.0000                STO-SS =           0.0000     STORAGE         
              STO-SY = 15465029437.5686                STO-SY =     2935871.5337     STORAGE         
                 WEL =  8962101114.3132                   WEL =     6370170.5611     WEL_0           
                 DRN = 33905093035.6008                   DRN =    46733909.2889     DRN_0           
                 RCH =           0.0000                   RCH =           0.0000     RCH_0           

           TOTAL OUT = 58332223587.4826             TOTAL OUT =    56039951.3837

            IN - OUT =       11858.4932              IN - OUT =          33.2079

 PERCENT DISCREPANCY =           0.00     PERCENT DISCREPANCY =           0.00




         TIME SUMMARY AT END OF TIME STEP    1 IN STRESS PERIOD  891
                          TIME STEP LENGTH =    1.00000    
                        STRESS PERIOD TIME =    1.00000    
                     TOTAL SIMULATION TIME =    891.000    

end timestep


start timestep kper="892" kstp="1" mode="normal"


 OUTPUT CONTROL FOR STRESS PERIOD 892 IS REPEATED USING SETTINGS FROM A PREVIOUS STRESS PERIOD.


 STRESS PERIOD 892 IS TRANSIENT


 REUSING WELS FROM LAST STRESS PERIOD

 REUSING DRNS FROM LAST STRESS PERIOD

 REUSING RCHS FROM LAST STRESS PERIOD


  VOLUME BUDGET FOR ENTIRE MODEL AT END OF TIME STEP    1, STRESS PERIOD 892
  ---------------------------------------------------------------------------------------------------

     CUMULATIVE VOLUME      L**3       RATES FOR THIS TIME STEP      L**3/T          PACKAGE NAME    
     ------------------                 ------------------------                     ----------------

           IN:                                      IN:
           ---                                      ---
              STO-SS =           0.0000                STO-SS =           0.0000     STORAGE         
              STO-SY = 16243561190.1575                STO-SY =    21769876.0742     STORAGE         
                 WEL =           0.0000                   WEL =           0.0000     WEL_0           
                 DRN =           0.0000                   DRN =           0.0000     DRN_0           
                 RCH = 42140797949.1105                   RCH =    30353817.2179     RCH_0           

            TOTAL IN = 58384359139.2679              TOTAL IN =    52123693.2921

          OUT:                                     OUT:
          ----                                     ----
              STO-SS =           0.0000                STO-SS =           0.0000     STORAGE         
              STO-SY = 15467582999.9470                STO-SY =     2553562.3784     STORAGE         
                 WEL =  8968435230.0153                   WEL =     6334115.7020     WEL_0           
                 DRN = 33948329060.9575                   DRN =    43236025.3567     DRN_0           
                 RCH =           0.0000                   RCH =           0.0000     RCH_0           

           TOTAL OUT = 58384347290.9197             TOTAL OUT =    52123703.4371

            IN - OUT =       11848.3482              IN - OUT =         -10.1450

 PERCENT DISCREPANCY =           0.00     PERCENT DISCREPANCY =          -0.00




         TIME SUMMARY AT END OF TIME STEP    1 IN STRESS PERIOD  892
                          TIME STEP LENGTH =    1.00000    
                        STRESS PERIOD TIME =    1.00000    
                     TOTAL SIMULATION TIME =    892.000    

end timestep


start timestep kper="893" kstp="1" mode="normal"


 OUTPUT CONTROL FOR STRESS PERIOD 893 IS REPEATED USING SETTINGS FROM A PREVIOUS STRESS PERIOD.


 STRESS PERIOD 893 IS TRANSIENT


 REUSING WELS FROM LAST STRESS PERIOD

 REUSING DRNS FROM LAST STRESS PERIOD

 REUSING RCHS FROM LAST STRESS PERIOD


  VOLUME BUDGET FOR ENTIRE MODEL AT END OF TIME STEP    1, STRESS PERIOD 893
  ---------------------------------------------------------------------------------------------------

     CUMULATIVE VOLUME      L**3       RATES FOR THIS TIME STEP      L**3/T          PACKAGE NAME    
     ------------------                 ------------------------                     ----------------

           IN:                                      IN:
           ---                                      ---
              STO-SS =           0.0000                STO-SS =           0.0000     STORAGE         
              STO-SY = 16264898900.0122                STO-SY =    21337709.8547     STORAGE         
                 WEL =           0.0000                   WEL =           0.0000     WEL_0           
                 DRN =           0.0000                   DRN =           0.0000     DRN_0           
                 RCH = 42173777179.0129                   RCH =    32979229.9025     RCH_0           

            TOTAL IN = 58438676079.0251              TOTAL IN =    54316939.7572

          OUT:                                     OUT:
          ----                                     ----
              STO-SS =           0.0000                STO-SS =           0.0000     STORAGE         
              STO-SY = 15470441277.4138                STO-SY =     2858277.4668     STORAGE         
                 WEL =  8974780374.5227                   WEL =     6345144.5074     WEL_0           
                 DRN = 33993442521.7587                   DRN =    45113460.8012     DRN_0           
                 RCH =           0.0000                   RCH =           0.0000     RCH_0           

           TOTAL OUT = 58438664173.6952             TOTAL OUT =    54316882.7754

            IN - OUT =       11905.3299              IN - OUT =          56.9817

 PERCENT DISCREPANCY =           0.00     PERCENT DISCREPANCY =           0.00




         TIME SUMMARY AT END OF TIME STEP    1 IN STRESS PERIOD  893
                          TIME STEP LENGTH =    1.00000    
                        STRESS PERIOD TIME =    1.00000    
                     TOTAL SIMULATION TIME =    893.000    

end timestep


start timestep kper="894" kstp="1" mode="normal"


 OUTPUT CONTROL FOR STRESS PERIOD 894 IS REPEATED USING SETTINGS FROM A PREVIOUS STRESS PERIOD.


 STRESS PERIOD 894 IS TRANSIENT


 REUSING WELS FROM LAST STRESS PERIOD

 REUSING DRNS FROM LAST STRESS PERIOD

 REUSING RCHS FROM LAST STRESS PERIOD


  VOLUME BUDGET FOR ENTIRE MODEL AT END OF TIME STEP    1, STRESS PERIOD 894
  ---------------------------------------------------------------------------------------------------

     CUMULATIVE VOLUME      L**3       RATES FOR THIS TIME STEP      L**3/T          PACKAGE NAME    
     ------------------                 ------------------------                     ----------------

           IN:                                      IN:
           ---                                      ---
              STO-SS =           0.0000                STO-SS =           0.0000     STORAGE         
              STO-SY = 16286985015.2216                STO-SY =    22086115.2094     STORAGE         
                 WEL =           0.0000                   WEL =           0.0000     WEL_0           
                 DRN =           0.0000                   DRN =           0.0000     DRN_0           
                 RCH = 42201889073.3548                   RCH =    28111894.3418     RCH_0           

            TOTAL IN = 58488874088.5763              TOTAL IN =    50198009.5512

          OUT:                                     OUT:
          ----                                     ----
              STO-SS =           0.0000                STO-SS =           0.0000     STORAGE         
              STO-SY = 15472744688.4002                STO-SY =     2303410.9864     STORAGE         
                 WEL =  8981045327.5432                   WEL =     6264953.0205     WEL_0           
                 DRN = 34035072153.3526                   DRN =    41629631.5939     DRN_0           
                 RCH =           0.0000                   RCH =           0.0000     RCH_0           

           TOTAL OUT = 58488862169.2961             TOTAL OUT =    50197995.6009

            IN - OUT =       11919.2803              IN - OUT =          13.9503

 PERCENT DISCREPANCY =           0.00     PERCENT DISCREPANCY =           0.00




         TIME SUMMARY AT END OF TIME STEP    1 IN STRESS PERIOD  894
                          TIME STEP LENGTH =    1.00000    
                        STRESS PERIOD TIME =    1.00000    
                     TOTAL SIMULATION TIME =    894.000    

end timestep


start timestep kper="895" kstp="1" mode="normal"


 OUTPUT CONTROL FOR STRESS PERIOD 895 IS REPEATED USING SETTINGS FROM A PREVIOUS STRESS PERIOD.


 STRESS PERIOD 895 IS TRANSIENT


 REUSING WELS FROM LAST STRESS PERIOD

 REUSING DRNS FROM LAST STRESS PERIOD

 REUSING RCHS FROM LAST STRESS PERIOD


  VOLUME BUDGET FOR ENTIRE MODEL AT END OF TIME STEP    1, STRESS PERIOD 895
  ---------------------------------------------------------------------------------------------------

     CUMULATIVE VOLUME      L**3       RATES FOR THIS TIME STEP      L**3/T          PACKAGE NAME    
     ------------------                 ------------------------                     ----------------

           IN:                                      IN:
           ---                                      ---
              STO-SS =           0.0000                STO-SS =           0.0000     STORAGE         
              STO-SY = 16306156165.3076                STO-SY =    19171150.0861     STORAGE         
                 WEL =           0.0000                   WEL =           0.0000     WEL_0           
                 DRN =           0.0000                   DRN =           0.0000     DRN_0           
                 RCH = 42231975659.0749                   RCH =    30086585.7201     RCH_0           

            TOTAL IN = 58538131824.3825              TOTAL IN =    49257735.8062

          OUT:                                     OUT:
          ----                                     ----
              STO-SS =           0.0000                STO-SS =           0.0000     STORAGE         
              STO-SY = 15476179298.3096                STO-SY =     3434609.9094     STORAGE         
                 WEL =  8982528081.9223                   WEL =     1482754.3791     WEL_0           
                 DRN = 34079412446.1487                   DRN =    44340292.7961     DRN_0           
                 RCH =           0.0000                   RCH =           0.0000     RCH_0           

           TOTAL OUT = 58538119826.3807             TOTAL OUT =    49257657.0846

            IN - OUT =       11998.0018              IN - OUT =          78.7216

 PERCENT DISCREPANCY =           0.00     PERCENT DISCREPANCY =           0.00




         TIME SUMMARY AT END OF TIME STEP    1 IN STRESS PERIOD  895
                          TIME STEP LENGTH =    1.00000    
                        STRESS PERIOD TIME =    1.00000    
                     TOTAL SIMULATION TIME =    895.000    

end timestep


start timestep kper="896" kstp="1" mode="normal"


 OUTPUT CONTROL FOR STRESS PERIOD 896 IS REPEATED USING SETTINGS FROM A PREVIOUS STRESS PERIOD.


 STRESS PERIOD 896 IS TRANSIENT


 REUSING WELS FROM LAST STRESS PERIOD

 REUSING DRNS FROM LAST STRESS PERIOD

 REUSING RCHS FROM LAST STRESS PERIOD


  VOLUME BUDGET FOR ENTIRE MODEL AT END OF TIME STEP    1, STRESS PERIOD 896
  ---------------------------------------------------------------------------------------------------

     CUMULATIVE VOLUME      L**3       RATES FOR THIS TIME STEP      L**3/T          PACKAGE NAME    
     ------------------                 ------------------------                     ----------------

           IN:                                      IN:
           ---                                      ---
              STO-SS =           0.0000                STO-SS =           0.0000     STORAGE         
              STO-SY = 16325831459.1844                STO-SY =    19675293.8768     STORAGE         
                 WEL =           0.0000                   WEL =           0.0000     WEL_0           
                 DRN =           0.0000                   DRN =           0.0000     DRN_0           
                 RCH = 42257372637.3204                   RCH =    25396978.2455     RCH_0           

            TOTAL IN = 58583204096.5048              TOTAL IN =    45072272.1223

          OUT:                                     OUT:
          ----                                     ----
              STO-SS =           0.0000                STO-SS =           0.0000     STORAGE         
              STO-SY = 15478772170.4685                STO-SY =     2592872.1589     STORAGE         
                 WEL =  8984003658.4121                   WEL =     1475576.4897     WEL_0           
                 DRN = 34120416272.4451                   DRN =    41003826.2964     DRN_0           
                 RCH =           0.0000                   RCH =           0.0000     RCH_0           

           TOTAL OUT = 58583192101.3257             TOTAL OUT =    45072274.9450

            IN - OUT =       11995.1791              IN - OUT =          -2.8227

 PERCENT DISCREPANCY =           0.00     PERCENT DISCREPANCY =          -0.00




         TIME SUMMARY AT END OF TIME STEP    1 IN STRESS PERIOD  896
                          TIME STEP LENGTH =    1.00000    
                        STRESS PERIOD TIME =    1.00000    
                     TOTAL SIMULATION TIME =    896.000    

end timestep


start timestep kper="897" kstp="1" mode="normal"


 OUTPUT CONTROL FOR STRESS PERIOD 897 IS REPEATED USING SETTINGS FROM A PREVIOUS STRESS PERIOD.


 STRESS PERIOD 897 IS TRANSIENT


 REUSING WELS FROM LAST STRESS PERIOD

 REUSING DRNS FROM LAST STRESS PERIOD

 REUSING RCHS FROM LAST STRESS PERIOD


  VOLUME BUDGET FOR ENTIRE MODEL AT END OF TIME STEP    1, STRESS PERIOD 897
  ---------------------------------------------------------------------------------------------------

     CUMULATIVE VOLUME      L**3       RATES FOR THIS TIME STEP      L**3/T          PACKAGE NAME    
     ------------------                 ------------------------                     ----------------

           IN:                                      IN:
           ---                                      ---
              STO-SS =           0.0000                STO-SS =           0.0000     STORAGE         
              STO-SY = 16345036862.1454                STO-SY =    19205402.9610     STORAGE         
                 WEL =           0.0000                   WEL =           0.0000     WEL_0           
                 DRN =           0.0000                   DRN =           0.0000     DRN_0           
                 RCH = 42284838684.9047                   RCH =    27466047.5843     RCH_0           

            TOTAL IN = 58629875547.0501              TOTAL IN =    46671450.5453

          OUT:                                     OUT:
          ----                                     ----
              STO-SS =           0.0000                STO-SS =           0.0000     STORAGE         
              STO-SY = 15481673227.6176                STO-SY =     2901057.1491     STORAGE         
                 WEL =  8985465187.4544                   WEL =     1461529.0424     WEL_0           
                 DRN = 34162725135.5617                   DRN =    42308863.1167     DRN_0           
                 RCH =           0.0000                   RCH =           0.0000     RCH_0           

           TOTAL OUT = 58629863550.6338             TOTAL OUT =    46671449.3081

            IN - OUT =       11996.4163              IN - OUT =           1.2372

 PERCENT DISCREPANCY =           0.00     PERCENT DISCREPANCY =           0.00




         TIME SUMMARY AT END OF TIME STEP    1 IN STRESS PERIOD  897
                          TIME STEP LENGTH =    1.00000    
                        STRESS PERIOD TIME =    1.00000    
                     TOTAL SIMULATION TIME =    897.000    

end timestep


start timestep kper="898" kstp="1" mode="normal"


 OUTPUT CONTROL FOR STRESS PERIOD 898 IS REPEATED USING SETTINGS FROM A PREVIOUS STRESS PERIOD.


 STRESS PERIOD 898 IS TRANSIENT


 REUSING WELS FROM LAST STRESS PERIOD

 REUSING DRNS FROM LAST STRESS PERIOD

 REUSING RCHS FROM LAST STRESS PERIOD


  VOLUME BUDGET FOR ENTIRE MODEL AT END OF TIME STEP    1, STRESS PERIOD 898
  ---------------------------------------------------------------------------------------------------

     CUMULATIVE VOLUME      L**3       RATES FOR THIS TIME STEP      L**3/T          PACKAGE NAME    
     ------------------                 ------------------------                     ----------------

           IN:                                      IN:
           ---                                      ---
              STO-SS =           0.0000                STO-SS =           0.0000     STORAGE         
              STO-SY = 16364755614.9140                STO-SY =    19718752.7685     STORAGE         
                 WEL =           0.0000                   WEL =           0.0000     WEL_0           
                 DRN =           0.0000                   DRN =           0.0000     DRN_0           
                 RCH = 42308395562.6517                   RCH =    23556877.7471     RCH_0           

            TOTAL IN = 58673151177.5657              TOTAL IN =    43275630.5156

          OUT:                                     OUT:
          ----                                     ----
              STO-SS =           0.0000                STO-SS =           0.0000     STORAGE         
              STO-SY = 15484009306.6817                STO-SY =     2336079.0641     STORAGE         
                 WEL =  8986931799.7926                   WEL =     1466612.3382     WEL_0           
                 DRN = 34202198062.7204                   DRN =    39472927.1586     DRN_0           
                 RCH =           0.0000                   RCH =           0.0000     RCH_0           

           TOTAL OUT = 58673139169.1947             TOTAL OUT =    43275618.5609

            IN - OUT =       12008.3710              IN - OUT =          11.9547

 PERCENT DISCREPANCY =           0.00     PERCENT DISCREPANCY =           0.00




         TIME SUMMARY AT END OF TIME STEP    1 IN STRESS PERIOD  898
                          TIME STEP LENGTH =    1.00000    
                        STRESS PERIOD TIME =    1.00000    
                     TOTAL SIMULATION TIME =    898.000    

end timestep


start timestep kper="899" kstp="1" mode="normal"


 OUTPUT CONTROL FOR STRESS PERIOD 899 IS REPEATED USING SETTINGS FROM A PREVIOUS STRESS PERIOD.


 STRESS PERIOD 899 IS TRANSIENT


 REUSING WELS FROM LAST STRESS PERIOD

 REUSING DRNS FROM LAST STRESS PERIOD

 REUSING RCHS FROM LAST STRESS PERIOD


  VOLUME BUDGET FOR ENTIRE MODEL AT END OF TIME STEP    1, STRESS PERIOD 899
  ---------------------------------------------------------------------------------------------------

     CUMULATIVE VOLUME      L**3       RATES FOR THIS TIME STEP      L**3/T          PACKAGE NAME    
     ------------------                 ------------------------                     ----------------

           IN:                                      IN:
           ---                                      ---
              STO-SS =           0.0000                STO-SS =           0.0000     STORAGE         
              STO-SY = 16384383156.3876                STO-SY =    19627541.4737     STORAGE         
                 WEL =           0.0000                   WEL =           0.0000     WEL_0           
                 DRN =           0.0000                   DRN =           0.0000     DRN_0           
                 RCH = 42333239049.7940                   RCH =    24843487.1422     RCH_0           

            TOTAL IN = 58717622206.1816              TOTAL IN =    44471028.6159

          OUT:                                     OUT:
          ----                                     ----
              STO-SS =           0.0000                STO-SS =           0.0000     STORAGE         
              STO-SY = 15486551984.3754                STO-SY =     2542677.6937     STORAGE         
                 WEL =  8988471174.9593                   WEL =     1539375.1667     WEL_0           
                 DRN = 34242587022.0422                   DRN =    40388959.3218     DRN_0           
                 RCH =           0.0000                   RCH =           0.0000     RCH_0           

           TOTAL OUT = 58717610181.3769             TOTAL OUT =    44471012.1822

            IN - OUT =       12024.8047              IN - OUT =          16.4337

 PERCENT DISCREPANCY =           0.00     PERCENT DISCREPANCY =           0.00




         TIME SUMMARY AT END OF TIME STEP    1 IN STRESS PERIOD  899
                          TIME STEP LENGTH =    1.00000    
                        STRESS PERIOD TIME =    1.00000    
                     TOTAL SIMULATION TIME =    899.000    

end timestep


start timestep kper="900" kstp="1" mode="normal"


 OUTPUT CONTROL FOR STRESS PERIOD 900 IS REPEATED USING SETTINGS FROM A PREVIOUS STRESS PERIOD.


 STRESS PERIOD 900 IS TRANSIENT


 REUSING WELS FROM LAST STRESS PERIOD

 REUSING DRNS FROM LAST STRESS PERIOD

 REUSING RCHS FROM LAST STRESS PERIOD


  VOLUME BUDGET FOR ENTIRE MODEL AT END OF TIME STEP    1, STRESS PERIOD 900
  ---------------------------------------------------------------------------------------------------

     CUMULATIVE VOLUME      L**3       RATES FOR THIS TIME STEP      L**3/T          PACKAGE NAME    
     ------------------                 ------------------------                     ----------------

           IN:                                      IN:
           ---                                      ---
              STO-SS =           0.0000                STO-SS =           0.0000     STORAGE         
              STO-SY = 16404372960.5195                STO-SY =    19989804.1319     STORAGE         
                 WEL =           0.0000                   WEL =           0.0000     WEL_0           
                 DRN =           0.0000                   DRN =           0.0000     DRN_0           
                 RCH = 42354758418.8912                   RCH =    21519369.0973     RCH_0           

            TOTAL IN = 58759131379.4108              TOTAL IN =    41509173.2292

          OUT:                                     OUT:
          ----                                     ----
              STO-SS =           0.0000                STO-SS =           0.0000     STORAGE         
              STO-SY = 15488660204.1956                STO-SY =     2108219.8202     STORAGE         
                 WEL =  8989982015.2167                   WEL =     1510840.2574     WEL_0           
                 DRN = 34280477105.4317                   DRN =    37890083.3895     DRN_0           
                 RCH =           0.0000                   RCH =           0.0000     RCH_0           

           TOTAL OUT = 58759119324.8439             TOTAL OUT =    41509143.4671

            IN - OUT =       12054.5668              IN - OUT =          29.7621

 PERCENT DISCREPANCY =           0.00     PERCENT DISCREPANCY =           0.00




         TIME SUMMARY AT END OF TIME STEP    1 IN STRESS PERIOD  900
                          TIME STEP LENGTH =    1.00000    
                        STRESS PERIOD TIME =    1.00000    
                     TOTAL SIMULATION TIME =    900.000    

end timestep


start timestep kper="901" kstp="1" mode="normal"


 OUTPUT CONTROL FOR STRESS PERIOD 901 IS REPEATED USING SETTINGS FROM A PREVIOUS STRESS PERIOD.


 STRESS PERIOD 901 IS TRANSIENT


 REUSING WELS FROM LAST STRESS PERIOD

 REUSING DRNS FROM LAST STRESS PERIOD

 REUSING RCHS FROM LAST STRESS PERIOD


  VOLUME BUDGET FOR ENTIRE MODEL AT END OF TIME STEP    1, STRESS PERIOD 901
  ---------------------------------------------------------------------------------------------------

     CUMULATIVE VOLUME      L**3       RATES FOR THIS TIME STEP      L**3/T          PACKAGE NAME    
     ------------------                 ------------------------                     ----------------

           IN:                                      IN:
           ---                                      ---
              STO-SS =           0.0000                STO-SS =           0.0000     STORAGE         
              STO-SY = 16424040609.6920                STO-SY =    19667649.1725     STORAGE         
                 WEL =           0.0000                   WEL =           0.0000     WEL_0           
                 DRN =           0.0000                   DRN =           0.0000     DRN_0           
                 RCH = 42378291118.8404                   RCH =    23532699.9492     RCH_0           

            TOTAL IN = 58802331728.5325              TOTAL IN =    43200349.1217

          OUT:                                     OUT:
          ----                                     ----
              STO-SS =           0.0000                STO-SS =           0.0000     STORAGE         
              STO-SY = 15491294879.4194                STO-SY =     2634675.2238     STORAGE         
                 WEL =  8991582300.5271                   WEL =     1600285.3104     WEL_0           
                 DRN = 34319442474.5983                   DRN =    38965369.1666     DRN_0           
                 RCH =           0.0000                   RCH =           0.0000     RCH_0           

           TOTAL OUT = 58802319654.5448             TOTAL OUT =    43200329.7009

            IN - OUT =       12073.9877              IN - OUT =          19.4208

 PERCENT DISCREPANCY =           0.00     PERCENT DISCREPANCY =           0.00




         TIME SUMMARY AT END OF TIME STEP    1 IN STRESS PERIOD  901
                          TIME STEP LENGTH =    1.00000    
                        STRESS PERIOD TIME =    1.00000    
                     TOTAL SIMULATION TIME =    901.000    

end timestep


start timestep kper="902" kstp="1" mode="normal"


 OUTPUT CONTROL FOR STRESS PERIOD 902 IS REPEATED USING SETTINGS FROM A PREVIOUS STRESS PERIOD.


 STRESS PERIOD 902 IS TRANSIENT


 REUSING WELS FROM LAST STRESS PERIOD

 REUSING DRNS FROM LAST STRESS PERIOD

 REUSING RCHS FROM LAST STRESS PERIOD


  VOLUME BUDGET FOR ENTIRE MODEL AT END OF TIME STEP    1, STRESS PERIOD 902
  ---------------------------------------------------------------------------------------------------

     CUMULATIVE VOLUME      L**3       RATES FOR THIS TIME STEP      L**3/T          PACKAGE NAME    
     ------------------                 ------------------------                     ----------------

           IN:                                      IN:
           ---                                      ---
              STO-SS =           0.0000                STO-SS =           0.0000     STORAGE         
              STO-SY = 16444109558.4063                STO-SY =    20068948.7143     STORAGE         
                 WEL =           0.0000                   WEL =           0.0000     WEL_0           
                 DRN =           0.0000                   DRN =           0.0000     DRN_0           
                 RCH = 42398017614.2346                   RCH =    19726495.3941     RCH_0           

            TOTAL IN = 58842127172.6409              TOTAL IN =    39795444.1084

          OUT:                                     OUT:
          ----                                     ----
              STO-SS =           0.0000                STO-SS =           0.0000     STORAGE         
              STO-SY = 15493173447.7579                STO-SY =     1878568.3385     STORAGE         
                 WEL =  8993030991.0694                   WEL =     1448690.5423     WEL_0           
                 DRN = 34355910661.6650                   DRN =    36468187.0666     DRN_0           
                 RCH =           0.0000                   RCH =           0.0000     RCH_0           

           TOTAL OUT = 58842115100.4923             TOTAL OUT =    39795445.9475

            IN - OUT =       12072.1486              IN - OUT =          -1.8390

 PERCENT DISCREPANCY =           0.00     PERCENT DISCREPANCY =          -0.00




         TIME SUMMARY AT END OF TIME STEP    1 IN STRESS PERIOD  902
                          TIME STEP LENGTH =    1.00000    
                        STRESS PERIOD TIME =    1.00000    
                     TOTAL SIMULATION TIME =    902.000    

end timestep


start timestep kper="903" kstp="1" mode="normal"


 OUTPUT CONTROL FOR STRESS PERIOD 903 IS REPEATED USING SETTINGS FROM A PREVIOUS STRESS PERIOD.


 STRESS PERIOD 903 IS TRANSIENT


 REUSING WELS FROM LAST STRESS PERIOD

 REUSING DRNS FROM LAST STRESS PERIOD

 REUSING RCHS FROM LAST STRESS PERIOD


  VOLUME BUDGET FOR ENTIRE MODEL AT END OF TIME STEP    1, STRESS PERIOD 903
  ---------------------------------------------------------------------------------------------------

     CUMULATIVE VOLUME      L**3       RATES FOR THIS TIME STEP      L**3/T          PACKAGE NAME    
     ------------------                 ------------------------                     ----------------

           IN:                                      IN:
           ---                                      ---
              STO-SS =           0.0000                STO-SS =           0.0000     STORAGE         
              STO-SY = 16463877991.9427                STO-SY =    19768433.5363     STORAGE         
                 WEL =           0.0000                   WEL =           0.0000     WEL_0           
                 DRN =           0.0000                   DRN =           0.0000     DRN_0           
                 RCH = 42419080931.6858                   RCH =    21063317.4513     RCH_0           

            TOTAL IN = 58882958923.6285              TOTAL IN =    40831750.9876

          OUT:                                     OUT:
          ----                                     ----
              STO-SS =           0.0000                STO-SS =           0.0000     STORAGE         
              STO-SY = 15495273592.8194                STO-SY =     2100145.0615     STORAGE         
                 WEL =  8994495308.9686                   WEL =     1464317.8992     WEL_0           
                 DRN = 34393177951.3937                   DRN =    37267289.7287     DRN_0           
                 RCH =           0.0000                   RCH =           0.0000     RCH_0           

           TOTAL OUT = 58882946853.1817             TOTAL OUT =    40831752.6894

            IN - OUT =       12070.4468              IN - OUT =          -1.7018

 PERCENT DISCREPANCY =           0.00     PERCENT DISCREPANCY =          -0.00




         TIME SUMMARY AT END OF TIME STEP    1 IN STRESS PERIOD  903
                          TIME STEP LENGTH =    1.00000    
                        STRESS PERIOD TIME =    1.00000    
                     TOTAL SIMULATION TIME =    903.000    

end timestep


start timestep kper="904" kstp="1" mode="normal"


 OUTPUT CONTROL FOR STRESS PERIOD 904 IS REPEATED USING SETTINGS FROM A PREVIOUS STRESS PERIOD.


 STRESS PERIOD 904 IS TRANSIENT


 REUSING WELS FROM LAST STRESS PERIOD

 REUSING DRNS FROM LAST STRESS PERIOD

 REUSING RCHS FROM LAST STRESS PERIOD


  VOLUME BUDGET FOR ENTIRE MODEL AT END OF TIME STEP    1, STRESS PERIOD 904
  ---------------------------------------------------------------------------------------------------

     CUMULATIVE VOLUME      L**3       RATES FOR THIS TIME STEP      L**3/T          PACKAGE NAME    
     ------------------                 ------------------------                     ----------------

           IN:                                      IN:
           ---                                      ---
              STO-SS =           0.0000                STO-SS =           0.0000     STORAGE         
              STO-SY = 16483727366.7230                STO-SY =    19849374.7803     STORAGE         
                 WEL =           0.0000                   WEL =           0.0000     WEL_0           
                 DRN =           0.0000                   DRN =           0.0000     DRN_0           
                 RCH = 42437755833.4682                   RCH =    18674901.7824     RCH_0           

            TOTAL IN = 58921483200.1912              TOTAL IN =    38524276.5627

          OUT:                                     OUT:
          ----                                     ----
              STO-SS =           0.0000                STO-SS =           0.0000     STORAGE         
              STO-SY = 15497051525.3531                STO-SY =     1777932.5337     STORAGE         
                 WEL =  8995976182.2671                   WEL =     1480873.2986     WEL_0           
                 DRN = 34428443424.5917                   DRN =    35265473.1979     DRN_0           
                 RCH =           0.0000                   RCH =           0.0000     RCH_0           

           TOTAL OUT = 58921471132.2119             TOTAL OUT =    38524279.0302

            IN - OUT =       12067.9793              IN - OUT =          -2.4675

 PERCENT DISCREPANCY =           0.00     PERCENT DISCREPANCY =          -0.00




         TIME SUMMARY AT END OF TIME STEP    1 IN STRESS PERIOD  904
                          TIME STEP LENGTH =    1.00000    
                        STRESS PERIOD TIME =    1.00000    
                     TOTAL SIMULATION TIME =    904.000    

end timestep


start timestep kper="905" kstp="1" mode="normal"


 OUTPUT CONTROL FOR STRESS PERIOD 905 IS REPEATED USING SETTINGS FROM A PREVIOUS STRESS PERIOD.


 STRESS PERIOD 905 IS TRANSIENT


 REUSING WELS FROM LAST STRESS PERIOD

 REUSING DRNS FROM LAST STRESS PERIOD

 REUSING RCHS FROM LAST STRESS PERIOD


  VOLUME BUDGET FOR ENTIRE MODEL AT END OF TIME STEP    1, STRESS PERIOD 905
  ---------------------------------------------------------------------------------------------------

     CUMULATIVE VOLUME      L**3       RATES FOR THIS TIME STEP      L**3/T          PACKAGE NAME    
     ------------------                 ------------------------                     ----------------

           IN:                                      IN:
           ---                                      ---
              STO-SS =           0.0000                STO-SS =           0.0000     STORAGE         
              STO-SY = 16503206530.4325                STO-SY =    19479163.7095     STORAGE         
                 WEL =           0.0000                   WEL =           0.0000     WEL_0           
                 DRN =           0.0000                   DRN =           0.0000     DRN_0           
                 RCH = 42457735086.9847                   RCH =    19979253.5165     RCH_0           

            TOTAL IN = 58960941617.4173              TOTAL IN =    39458417.2261

          OUT:                                     OUT:
          ----                                     ----
              STO-SS =           0.0000                STO-SS =           0.0000     STORAGE         
              STO-SY = 15498997374.9604                STO-SY =     1945849.6073     STORAGE         
                 WEL =  8997397999.6524                   WEL =     1421817.3853     WEL_0           
                 DRN = 34464534178.6608                   DRN =    36090754.0691     DRN_0           
                 RCH =           0.0000                   RCH =           0.0000     RCH_0           

           TOTAL OUT = 58960929553.2736             TOTAL OUT =    39458421.0617

            IN - OUT =       12064.1437              IN - OUT =          -3.8357

 PERCENT DISCREPANCY =           0.00     PERCENT DISCREPANCY =          -0.00




         TIME SUMMARY AT END OF TIME STEP    1 IN STRESS PERIOD  905
                          TIME STEP LENGTH =    1.00000    
                        STRESS PERIOD TIME =    1.00000    
                     TOTAL SIMULATION TIME =    905.000    

end timestep


start timestep kper="906" kstp="1" mode="normal"


 OUTPUT CONTROL FOR STRESS PERIOD 906 IS REPEATED USING SETTINGS FROM A PREVIOUS STRESS PERIOD.


 STRESS PERIOD 906 IS TRANSIENT


 REUSING WELS FROM LAST STRESS PERIOD

 REUSING DRNS FROM LAST STRESS PERIOD

 REUSING RCHS FROM LAST STRESS PERIOD


  VOLUME BUDGET FOR ENTIRE MODEL AT END OF TIME STEP    1, STRESS PERIOD 906
  ---------------------------------------------------------------------------------------------------

     CUMULATIVE VOLUME      L**3       RATES FOR THIS TIME STEP      L**3/T          PACKAGE NAME    
     ------------------                 ------------------------                     ----------------

           IN:                                      IN:
           ---                                      ---
              STO-SS =           0.0000                STO-SS =           0.0000     STORAGE         
              STO-SY = 16522947910.2092                STO-SY =    19741379.7766     STORAGE         
                 WEL =           0.0000                   WEL =           0.0000     WEL_0           
                 DRN =           0.0000                   DRN =           0.0000     DRN_0           
                 RCH = 42475259727.2446                   RCH =    17524640.2598     RCH_0           

            TOTAL IN = 58998207637.4538              TOTAL IN =    37266020.0365

          OUT:                                     OUT:
          ----                                     ----
              STO-SS =           0.0000                STO-SS =           0.0000     STORAGE         
              STO-SY = 15500688694.9912                STO-SY =     1691320.0309     STORAGE         
                 WEL =  8998855955.2931                   WEL =     1457955.6407     WEL_0           
                 DRN = 34498650911.6163                   DRN =    34116732.9555     DRN_0           
                 RCH =           0.0000                   RCH =           0.0000     RCH_0           

           TOTAL OUT = 58998195561.9007             TOTAL OUT =    37266008.6271

            IN - OUT =       12075.5531              IN - OUT =          11.4094

 PERCENT DISCREPANCY =           0.00     PERCENT DISCREPANCY =           0.00




         TIME SUMMARY AT END OF TIME STEP    1 IN STRESS PERIOD  906
                          TIME STEP LENGTH =    1.00000    
                        STRESS PERIOD TIME =    1.00000    
                     TOTAL SIMULATION TIME =    906.000    

end timestep


start timestep kper="907" kstp="1" mode="normal"


 OUTPUT CONTROL FOR STRESS PERIOD 907 IS REPEATED USING SETTINGS FROM A PREVIOUS STRESS PERIOD.


 STRESS PERIOD 907 IS TRANSIENT


 REUSING WELS FROM LAST STRESS PERIOD

 REUSING DRNS FROM LAST STRESS PERIOD

 REUSING RCHS FROM LAST STRESS PERIOD


  VOLUME BUDGET FOR ENTIRE MODEL AT END OF TIME STEP    1, STRESS PERIOD 907
  ---------------------------------------------------------------------------------------------------

     CUMULATIVE VOLUME      L**3       RATES FOR THIS TIME STEP      L**3/T          PACKAGE NAME    
     ------------------                 ------------------------                     ----------------

           IN:                                      IN:
           ---                                      ---
              STO-SS =           0.0000                STO-SS =           0.0000     STORAGE         
              STO-SY = 16542317903.5413                STO-SY =    19369993.3321     STORAGE         
                 WEL =           0.0000                   WEL =           0.0000     WEL_0           
                 DRN =           0.0000                   DRN =           0.0000     DRN_0           
                 RCH = 42494120587.2962                   RCH =    18860860.0517     RCH_0           

            TOTAL IN = 59036438490.8375              TOTAL IN =    38230853.3838

          OUT:                                     OUT:
          ----                                     ----
              STO-SS =           0.0000                STO-SS =           0.0000     STORAGE         
              STO-SY = 15502522240.5583                STO-SY =     1833545.5671     STORAGE         
                 WEL =  9000294900.4110                   WEL =     1438945.1178     WEL_0           
                 DRN = 34533609263.6758                   DRN =    34958352.0596     DRN_0           
                 RCH =           0.0000                   RCH =           0.0000     RCH_0           

           TOTAL OUT = 59036426404.6452             TOTAL OUT =    38230842.7445

            IN - OUT =       12086.1924              IN - OUT =          10.6393

 PERCENT DISCREPANCY =           0.00     PERCENT DISCREPANCY =           0.00




         TIME SUMMARY AT END OF TIME STEP    1 IN STRESS PERIOD  907
                          TIME STEP LENGTH =    1.00000    
                        STRESS PERIOD TIME =    1.00000    
                     TOTAL SIMULATION TIME =    907.000    

end timestep


start timestep kper="908" kstp="1" mode="normal"


 OUTPUT CONTROL FOR STRESS PERIOD 908 IS REPEATED USING SETTINGS FROM A PREVIOUS STRESS PERIOD.


 STRESS PERIOD 908 IS TRANSIENT


 REUSING WELS FROM LAST STRESS PERIOD

 REUSING DRNS FROM LAST STRESS PERIOD

 REUSING RCHS FROM LAST STRESS PERIOD


  VOLUME BUDGET FOR ENTIRE MODEL AT END OF TIME STEP    1, STRESS PERIOD 908
  ---------------------------------------------------------------------------------------------------

     CUMULATIVE VOLUME      L**3       RATES FOR THIS TIME STEP      L**3/T          PACKAGE NAME    
     ------------------                 ------------------------                     ----------------

           IN:                                      IN:
           ---                                      ---
              STO-SS =           0.0000                STO-SS =           0.0000     STORAGE         
              STO-SY = 16557272989.3237                STO-SY =    14955085.7824     STORAGE         
                 WEL =           0.0000                   WEL =           0.0000     WEL_0           
                 DRN =           0.0000                   DRN =           0.0000     DRN_0           
                 RCH = 42525461005.7146                   RCH =    31340418.4183     RCH_0           

            TOTAL IN = 59082733995.0383              TOTAL IN =    46295504.2008

          OUT:                                     OUT:
          ----                                     ----
              STO-SS =           0.0000                STO-SS =           0.0000     STORAGE         
              STO-SY = 15512314574.0057                STO-SY =     9792333.4474     STORAGE         
                 WEL =  9001750630.5011                   WEL =     1455730.0902     WEL_0           
                 DRN = 34568656704.4251                   DRN =    35047440.7492     DRN_0           
                 RCH =           0.0000                   RCH =           0.0000     RCH_0           

           TOTAL OUT = 59082721908.9320             TOTAL OUT =    46295504.2868

            IN - OUT =       12086.1063              IN - OUT =      -8.6021E-02

 PERCENT DISCREPANCY =           0.00     PERCENT DISCREPANCY =          -0.00




         TIME SUMMARY AT END OF TIME STEP    1 IN STRESS PERIOD  908
                          TIME STEP LENGTH =    1.00000    
                        STRESS PERIOD TIME =    1.00000    
                     TOTAL SIMULATION TIME =    908.000    

end timestep


start timestep kper="909" kstp="1" mode="normal"


 OUTPUT CONTROL FOR STRESS PERIOD 909 IS REPEATED USING SETTINGS FROM A PREVIOUS STRESS PERIOD.


 STRESS PERIOD 909 IS TRANSIENT


 REUSING WELS FROM LAST STRESS PERIOD

 REUSING DRNS FROM LAST STRESS PERIOD

 REUSING RCHS FROM LAST STRESS PERIOD


  VOLUME BUDGET FOR ENTIRE MODEL AT END OF TIME STEP    1, STRESS PERIOD 909
  ---------------------------------------------------------------------------------------------------

     CUMULATIVE VOLUME      L**3       RATES FOR THIS TIME STEP      L**3/T          PACKAGE NAME    
     ------------------                 ------------------------                     ----------------

           IN:                                      IN:
           ---                                      ---
              STO-SS =           0.0000                STO-SS =           0.0000     STORAGE         
              STO-SY = 16575662954.6972                STO-SY =    18389965.3735     STORAGE         
                 WEL =           0.0000                   WEL =           0.0000     WEL_0           
                 DRN =           0.0000                   DRN =           0.0000     DRN_0           
                 RCH = 42545054365.0873                   RCH =    19593359.3727     RCH_0           

            TOTAL IN = 59120717319.7845              TOTAL IN =    37983324.7462

          OUT:                                     OUT:
          ----                                     ----
              STO-SS =           0.0000                STO-SS =           0.0000     STORAGE         
              STO-SY = 15514219572.8822                STO-SY =     1904998.8765     STORAGE         
                 WEL =  9003249686.5182                   WEL =     1499056.0171     WEL_0           
                 DRN = 34603235967.7950                   DRN =    34579263.3699     DRN_0           
                 RCH =           0.0000                   RCH =           0.0000     RCH_0           

           TOTAL OUT = 59120705227.1954             TOTAL OUT =    37983318.2635

            IN - OUT =       12092.5891              IN - OUT =           6.4827

 PERCENT DISCREPANCY =           0.00     PERCENT DISCREPANCY =           0.00




         TIME SUMMARY AT END OF TIME STEP    1 IN STRESS PERIOD  909
                          TIME STEP LENGTH =    1.00000    
                        STRESS PERIOD TIME =    1.00000    
                     TOTAL SIMULATION TIME =    909.000    

end timestep


start timestep kper="910" kstp="1" mode="normal"


 OUTPUT CONTROL FOR STRESS PERIOD 910 IS REPEATED USING SETTINGS FROM A PREVIOUS STRESS PERIOD.


 STRESS PERIOD 910 IS TRANSIENT


 REUSING WELS FROM LAST STRESS PERIOD

 REUSING DRNS FROM LAST STRESS PERIOD

 REUSING RCHS FROM LAST STRESS PERIOD


  VOLUME BUDGET FOR ENTIRE MODEL AT END OF TIME STEP    1, STRESS PERIOD 910
  ---------------------------------------------------------------------------------------------------

     CUMULATIVE VOLUME      L**3       RATES FOR THIS TIME STEP      L**3/T          PACKAGE NAME    
     ------------------                 ------------------------                     ----------------

           IN:                                      IN:
           ---                                      ---
              STO-SS =           0.0000                STO-SS =           0.0000     STORAGE         
              STO-SY = 16593621434.7441                STO-SY =    17958480.0468     STORAGE         
                 WEL =           0.0000                   WEL =           0.0000     WEL_0           
                 DRN =           0.0000                   DRN =           0.0000     DRN_0           
                 RCH = 42563497996.4949                   RCH =    18443631.4077     RCH_0           

            TOTAL IN = 59157119431.2390              TOTAL IN =    36402111.4545

          OUT:                                     OUT:
          ----                                     ----
              STO-SS =           0.0000                STO-SS =           0.0000     STORAGE         
              STO-SY = 15516081934.6132                STO-SY =     1862361.7310     STORAGE         
                 WEL =  9004681093.4312                   WEL =     1431406.9130     WEL_0           
                 DRN = 34636344246.1113                   DRN =    33108278.3163     DRN_0           
                 RCH =           0.0000                   RCH =           0.0000     RCH_0           

           TOTAL OUT = 59157107274.1557             TOTAL OUT =    36402046.9603

            IN - OUT =       12157.0833              IN - OUT =          64.4943

 PERCENT DISCREPANCY =           0.00     PERCENT DISCREPANCY =           0.00




         TIME SUMMARY AT END OF TIME STEP    1 IN STRESS PERIOD  910
                          TIME STEP LENGTH =    1.00000    
                        STRESS PERIOD TIME =    1.00000    
                     TOTAL SIMULATION TIME =    910.000    

end timestep


start timestep kper="911" kstp="1" mode="normal"


 OUTPUT CONTROL FOR STRESS PERIOD 911 IS REPEATED USING SETTINGS FROM A PREVIOUS STRESS PERIOD.


 STRESS PERIOD 911 IS TRANSIENT


 REUSING WELS FROM LAST STRESS PERIOD

 REUSING DRNS FROM LAST STRESS PERIOD

 REUSING RCHS FROM LAST STRESS PERIOD


  VOLUME BUDGET FOR ENTIRE MODEL AT END OF TIME STEP    1, STRESS PERIOD 911
  ---------------------------------------------------------------------------------------------------

     CUMULATIVE VOLUME      L**3       RATES FOR THIS TIME STEP      L**3/T          PACKAGE NAME    
     ------------------                 ------------------------                     ----------------

           IN:                                      IN:
           ---                                      ---
              STO-SS =           0.0000                STO-SS =           0.0000     STORAGE         
              STO-SY = 16612354512.0436                STO-SY =    18733077.2995     STORAGE         
                 WEL =           0.0000                   WEL =           0.0000     WEL_0           
                 DRN =           0.0000                   DRN =           0.0000     DRN_0           
                 RCH = 42581291672.2530                   RCH =    17793675.7581     RCH_0           

            TOTAL IN = 59193646184.2966              TOTAL IN =    36526753.0576

          OUT:                                     OUT:
          ----                                     ----
              STO-SS =           0.0000                STO-SS =           0.0000     STORAGE         
              STO-SY = 15517758417.0733                STO-SY =     1676482.4601     STORAGE         
                 WEL =  9006156455.1104                   WEL =     1475361.6793     WEL_0           
                 DRN = 34669719108.8080                   DRN =    33374862.6967     DRN_0           
                 RCH =           0.0000                   RCH =           0.0000     RCH_0           

           TOTAL OUT = 59193633980.9918             TOTAL OUT =    36526706.8361

            IN - OUT =       12203.3048              IN - OUT =          46.2215

 PERCENT DISCREPANCY =           0.00     PERCENT DISCREPANCY =           0.00




         TIME SUMMARY AT END OF TIME STEP    1 IN STRESS PERIOD  911
                          TIME STEP LENGTH =    1.00000    
                        STRESS PERIOD TIME =    1.00000    
                     TOTAL SIMULATION TIME =    911.000    

end timestep


start timestep kper="912" kstp="1" mode="normal"


 OUTPUT CONTROL FOR STRESS PERIOD 912 IS REPEATED USING SETTINGS FROM A PREVIOUS STRESS PERIOD.


 STRESS PERIOD 912 IS TRANSIENT


 REUSING WELS FROM LAST STRESS PERIOD

 REUSING DRNS FROM LAST STRESS PERIOD

 REUSING RCHS FROM LAST STRESS PERIOD


  VOLUME BUDGET FOR ENTIRE MODEL AT END OF TIME STEP    1, STRESS PERIOD 912
  ---------------------------------------------------------------------------------------------------

     CUMULATIVE VOLUME      L**3       RATES FOR THIS TIME STEP      L**3/T          PACKAGE NAME    
     ------------------                 ------------------------                     ----------------

           IN:                                      IN:
           ---                                      ---
              STO-SS =           0.0000                STO-SS =           0.0000     STORAGE         
              STO-SY = 16632830345.7476                STO-SY =    20475833.7040     STORAGE         
                 WEL =           0.0000                   WEL =           0.0000     WEL_0           
                 DRN =           0.0000                   DRN =           0.0000     DRN_0           
                 RCH = 42599845084.9215                   RCH =    18553412.6685     RCH_0           

            TOTAL IN = 59232675430.6691              TOTAL IN =    39029246.3725

          OUT:                                     OUT:
          ----                                     ----
              STO-SS =           0.0000                STO-SS =           0.0000     STORAGE         
              STO-SY = 15520948263.7089                STO-SY =     3189846.6356     STORAGE         
                 WEL =  9009958003.5739                   WEL =     3801548.4635     WEL_0           
                 DRN = 34701756948.2378                   DRN =    32037839.4298     DRN_0           
                 RCH =           0.0000                   RCH =           0.0000     RCH_0           

           TOTAL OUT = 59232663215.5206             TOTAL OUT =    39029234.5289

            IN - OUT =       12215.1484              IN - OUT =          11.8436

 PERCENT DISCREPANCY =           0.00     PERCENT DISCREPANCY =           0.00




         TIME SUMMARY AT END OF TIME STEP    1 IN STRESS PERIOD  912
                          TIME STEP LENGTH =    1.00000    
                        STRESS PERIOD TIME =    1.00000    
                     TOTAL SIMULATION TIME =    912.000    

end timestep


start timestep kper="913" kstp="1" mode="normal"


 OUTPUT CONTROL FOR STRESS PERIOD 913 IS REPEATED USING SETTINGS FROM A PREVIOUS STRESS PERIOD.


 STRESS PERIOD 913 IS TRANSIENT


 REUSING WELS FROM LAST STRESS PERIOD

 REUSING DRNS FROM LAST STRESS PERIOD

 REUSING RCHS FROM LAST STRESS PERIOD


  VOLUME BUDGET FOR ENTIRE MODEL AT END OF TIME STEP    1, STRESS PERIOD 913
  ---------------------------------------------------------------------------------------------------

     CUMULATIVE VOLUME      L**3       RATES FOR THIS TIME STEP      L**3/T          PACKAGE NAME    
     ------------------                 ------------------------                     ----------------

           IN:                                      IN:
           ---                                      ---
              STO-SS =           0.0000                STO-SS =           0.0000     STORAGE         
              STO-SY = 16651773966.6770                STO-SY =    18943620.9294     STORAGE         
                 WEL =           0.0000                   WEL =           0.0000     WEL_0           
                 DRN =           0.0000                   DRN =           0.0000     DRN_0           
                 RCH = 42616424226.1585                   RCH =    16579141.2370     RCH_0           

            TOTAL IN = 59268198192.8355              TOTAL IN =    35522762.1665

          OUT:                                     OUT:
          ----                                     ----
              STO-SS =           0.0000                STO-SS =           0.0000     STORAGE         
              STO-SY = 15522537522.8089                STO-SY =     1589259.1000     STORAGE         
                 WEL =  9011369459.7228                   WEL =     1411456.1489     WEL_0           
                 DRN = 34734278986.7004                   DRN =    32522038.4626     DRN_0           
                 RCH =           0.0000                   RCH =           0.0000     RCH_0           

           TOTAL OUT = 59268185969.2322             TOTAL OUT =    35522753.7115

            IN - OUT =       12223.6033              IN - OUT =           8.4549

 PERCENT DISCREPANCY =           0.00     PERCENT DISCREPANCY =           0.00




         TIME SUMMARY AT END OF TIME STEP    1 IN STRESS PERIOD  913
                          TIME STEP LENGTH =    1.00000    
                        STRESS PERIOD TIME =    1.00000    
                     TOTAL SIMULATION TIME =    913.000    

end timestep


start timestep kper="914" kstp="1" mode="normal"


 OUTPUT CONTROL FOR STRESS PERIOD 914 IS REPEATED USING SETTINGS FROM A PREVIOUS STRESS PERIOD.


 STRESS PERIOD 914 IS TRANSIENT


 REUSING WELS FROM LAST STRESS PERIOD

 REUSING DRNS FROM LAST STRESS PERIOD

 REUSING RCHS FROM LAST STRESS PERIOD


  VOLUME BUDGET FOR ENTIRE MODEL AT END OF TIME STEP    1, STRESS PERIOD 914
  ---------------------------------------------------------------------------------------------------

     CUMULATIVE VOLUME      L**3       RATES FOR THIS TIME STEP      L**3/T          PACKAGE NAME    
     ------------------                 ------------------------                     ----------------

           IN:                                      IN:
           ---                                      ---
              STO-SS =           0.0000                STO-SS =           0.0000     STORAGE         
              STO-SY = 16670255262.5377                STO-SY =    18481295.8607     STORAGE         
                 WEL =           0.0000                   WEL =           0.0000     WEL_0           
                 DRN =           0.0000                   DRN =           0.0000     DRN_0           
                 RCH = 42631985551.2525                   RCH =    15561325.0940     RCH_0           

            TOTAL IN = 59302240813.7902              TOTAL IN =    34042620.9547

          OUT:                                     OUT:
          ----                                     ----
              STO-SS =           0.0000                STO-SS =           0.0000     STORAGE         
              STO-SY = 15524059100.8604                STO-SY =     1521578.0515     STORAGE         
                 WEL =  9012794036.6544                   WEL =     1424576.9316     WEL_0           
                 DRN = 34765375437.5120                   DRN =    31096450.8115     DRN_0           
                 RCH =           0.0000                   RCH =           0.0000     RCH_0           

           TOTAL OUT = 59302228575.0267             TOTAL OUT =    34042605.7946

            IN - OUT =       12238.7635              IN - OUT =          15.1601

 PERCENT DISCREPANCY =           0.00     PERCENT DISCREPANCY =           0.00




         TIME SUMMARY AT END OF TIME STEP    1 IN STRESS PERIOD  914
                          TIME STEP LENGTH =    1.00000    
                        STRESS PERIOD TIME =    1.00000    
                     TOTAL SIMULATION TIME =    914.000    

end timestep


start timestep kper="915" kstp="1" mode="normal"


 OUTPUT CONTROL FOR STRESS PERIOD 915 IS REPEATED USING SETTINGS FROM A PREVIOUS STRESS PERIOD.


 STRESS PERIOD 915 IS TRANSIENT


 REUSING WELS FROM LAST STRESS PERIOD

 REUSING DRNS FROM LAST STRESS PERIOD

 REUSING RCHS FROM LAST STRESS PERIOD


  VOLUME BUDGET FOR ENTIRE MODEL AT END OF TIME STEP    1, STRESS PERIOD 915
  ---------------------------------------------------------------------------------------------------

     CUMULATIVE VOLUME      L**3       RATES FOR THIS TIME STEP      L**3/T          PACKAGE NAME    
     ------------------                 ------------------------                     ----------------

           IN:                                      IN:
           ---                                      ---
              STO-SS =           0.0000                STO-SS =           0.0000     STORAGE         
              STO-SY = 16686529885.0877                STO-SY =    16274622.5500     STORAGE         
                 WEL =           0.0000                   WEL =           0.0000     WEL_0           
                 DRN =           0.0000                   DRN =           0.0000     DRN_0           
                 RCH = 42651153367.7565                   RCH =    19167816.5040     RCH_0           

            TOTAL IN = 59337683252.8442              TOTAL IN =    35442439.0540

          OUT:                                     OUT:
          ----                                     ----
              STO-SS =           0.0000                STO-SS =           0.0000     STORAGE         
              STO-SY = 15526023767.5790                STO-SY =     1964666.7186     STORAGE         
                 WEL =  9014337789.2971                   WEL =     1543752.6427     WEL_0           
                 DRN = 34797309422.6004                   DRN =    31933985.0885     DRN_0           
                 RCH =           0.0000                   RCH =           0.0000     RCH_0           

           TOTAL OUT = 59337670979.4766             TOTAL OUT =    35442404.4498

            IN - OUT =       12273.3676              IN - OUT =          34.6042

 PERCENT DISCREPANCY =           0.00     PERCENT DISCREPANCY =           0.00




         TIME SUMMARY AT END OF TIME STEP    1 IN STRESS PERIOD  915
                          TIME STEP LENGTH =    1.00000    
                        STRESS PERIOD TIME =    1.00000    
                     TOTAL SIMULATION TIME =    915.000    

end timestep


start timestep kper="916" kstp="1" mode="normal"


 OUTPUT CONTROL FOR STRESS PERIOD 916 IS REPEATED USING SETTINGS FROM A PREVIOUS STRESS PERIOD.


 STRESS PERIOD 916 IS TRANSIENT


 REUSING WELS FROM LAST STRESS PERIOD

 REUSING DRNS FROM LAST STRESS PERIOD

 REUSING RCHS FROM LAST STRESS PERIOD


  VOLUME BUDGET FOR ENTIRE MODEL AT END OF TIME STEP    1, STRESS PERIOD 916
  ---------------------------------------------------------------------------------------------------

     CUMULATIVE VOLUME      L**3       RATES FOR THIS TIME STEP      L**3/T          PACKAGE NAME    
     ------------------                 ------------------------                     ----------------

           IN:                                      IN:
           ---                                      ---
              STO-SS =           0.0000                STO-SS =           0.0000     STORAGE         
              STO-SY = 16703580928.9996                STO-SY =    17051043.9119     STORAGE         
                 WEL =           0.0000                   WEL =           0.0000     WEL_0           
                 DRN =           0.0000                   DRN =           0.0000     DRN_0           
                 RCH = 42681679207.2666                   RCH =    30525839.5101     RCH_0           

            TOTAL IN = 59385260136.2661              TOTAL IN =    47576883.4220

          OUT:                                     OUT:
          ----                                     ----
              STO-SS =           0.0000                STO-SS =           0.0000     STORAGE         
              STO-SY = 15534693648.9526                STO-SY =     8669881.3735     STORAGE         
                 WEL =  9021318332.4843                   WEL =     6980543.1872     WEL_0           
                 DRN = 34829235880.8157                   DRN =    31926458.2152     DRN_0           
                 RCH =           0.0000                   RCH =           0.0000     RCH_0           

           TOTAL OUT = 59385247862.2525             TOTAL OUT =    47576882.7759

            IN - OUT =       12274.0136              IN - OUT =           0.6460

 PERCENT DISCREPANCY =           0.00     PERCENT DISCREPANCY =           0.00




         TIME SUMMARY AT END OF TIME STEP    1 IN STRESS PERIOD  916
                          TIME STEP LENGTH =    1.00000    
                        STRESS PERIOD TIME =    1.00000    
                     TOTAL SIMULATION TIME =    916.000    

end timestep


start timestep kper="917" kstp="1" mode="normal"


 OUTPUT CONTROL FOR STRESS PERIOD 917 IS REPEATED USING SETTINGS FROM A PREVIOUS STRESS PERIOD.


 STRESS PERIOD 917 IS TRANSIENT


 REUSING WELS FROM LAST STRESS PERIOD

 REUSING DRNS FROM LAST STRESS PERIOD

 REUSING RCHS FROM LAST STRESS PERIOD


  VOLUME BUDGET FOR ENTIRE MODEL AT END OF TIME STEP    1, STRESS PERIOD 917
  ---------------------------------------------------------------------------------------------------

     CUMULATIVE VOLUME      L**3       RATES FOR THIS TIME STEP      L**3/T          PACKAGE NAME    
     ------------------                 ------------------------                     ----------------

           IN:                                      IN:
           ---                                      ---
              STO-SS =           0.0000                STO-SS =           0.0000     STORAGE         
              STO-SY = 16722212644.5810                STO-SY =    18631715.5814     STORAGE         
                 WEL =           0.0000                   WEL =           0.0000     WEL_0           
                 DRN =           0.0000                   DRN =           0.0000     DRN_0           
                 RCH = 42696766357.7976                   RCH =    15087150.5310     RCH_0           

            TOTAL IN = 59418979002.3786              TOTAL IN =    33718866.1125

          OUT:                                     OUT:
          ----                                     ----
              STO-SS =           0.0000                STO-SS =           0.0000     STORAGE         
              STO-SY = 15536097681.0585                STO-SY =     1404032.1059     STORAGE         
                 WEL =  9022761609.7154                   WEL =     1443277.2311     WEL_0           
                 DRN = 34860107414.5778                   DRN =    30871533.7622     DRN_0           
                 RCH =           0.0000                   RCH =           0.0000     RCH_0           

           TOTAL OUT = 59418966705.3517             TOTAL OUT =    33718843.0992

            IN - OUT =       12297.0270              IN - OUT =          23.0133

 PERCENT DISCREPANCY =           0.00     PERCENT DISCREPANCY =           0.00




         TIME SUMMARY AT END OF TIME STEP    1 IN STRESS PERIOD  917
                          TIME STEP LENGTH =    1.00000    
                        STRESS PERIOD TIME =    1.00000    
                     TOTAL SIMULATION TIME =    917.000    

end timestep


start timestep kper="918" kstp="1" mode="normal"


 OUTPUT CONTROL FOR STRESS PERIOD 918 IS REPEATED USING SETTINGS FROM A PREVIOUS STRESS PERIOD.


 STRESS PERIOD 918 IS TRANSIENT


 REUSING WELS FROM LAST STRESS PERIOD

 REUSING DRNS FROM LAST STRESS PERIOD

 REUSING RCHS FROM LAST STRESS PERIOD


  VOLUME BUDGET FOR ENTIRE MODEL AT END OF TIME STEP    1, STRESS PERIOD 918
  ---------------------------------------------------------------------------------------------------

     CUMULATIVE VOLUME      L**3       RATES FOR THIS TIME STEP      L**3/T          PACKAGE NAME    
     ------------------                 ------------------------                     ----------------

           IN:                                      IN:
           ---                                      ---
              STO-SS =           0.0000                STO-SS =           0.0000     STORAGE         
              STO-SY = 16741491347.1812                STO-SY =    19278702.6001     STORAGE         
                 WEL =           0.0000                   WEL =           0.0000     WEL_0           
                 DRN =           0.0000                   DRN =           0.0000     DRN_0           
                 RCH = 42710781282.5432                   RCH =    14014924.7456     RCH_0           

            TOTAL IN = 59452272629.7244              TOTAL IN =    33293627.3458

          OUT:                                     OUT:
          ----                                     ----
              STO-SS =           0.0000                STO-SS =           0.0000     STORAGE         
              STO-SY = 15537619868.7916                STO-SY =     1522187.7331     STORAGE         
                 WEL =  9025162545.8416                   WEL =     2400936.1262     WEL_0           
                 DRN = 34889477910.1165                   DRN =    29370495.5387     DRN_0           
                 RCH =           0.0000                   RCH =           0.0000     RCH_0           

           TOTAL OUT = 59452260324.7497             TOTAL OUT =    33293619.3980

            IN - OUT =       12304.9747              IN - OUT =           7.9478

 PERCENT DISCREPANCY =           0.00     PERCENT DISCREPANCY =           0.00




         TIME SUMMARY AT END OF TIME STEP    1 IN STRESS PERIOD  918
                          TIME STEP LENGTH =    1.00000    
                        STRESS PERIOD TIME =    1.00000    
                     TOTAL SIMULATION TIME =    918.000    

end timestep


start timestep kper="919" kstp="1" mode="normal"


 OUTPUT CONTROL FOR STRESS PERIOD 919 IS REPEATED USING SETTINGS FROM A PREVIOUS STRESS PERIOD.


 STRESS PERIOD 919 IS TRANSIENT


 REUSING WELS FROM LAST STRESS PERIOD

 REUSING DRNS FROM LAST STRESS PERIOD

 REUSING RCHS FROM LAST STRESS PERIOD


  VOLUME BUDGET FOR ENTIRE MODEL AT END OF TIME STEP    1, STRESS PERIOD 919
  ---------------------------------------------------------------------------------------------------

     CUMULATIVE VOLUME      L**3       RATES FOR THIS TIME STEP      L**3/T          PACKAGE NAME    
     ------------------                 ------------------------                     ----------------

           IN:                                      IN:
           ---                                      ---
              STO-SS =           0.0000                STO-SS =           0.0000     STORAGE         
              STO-SY = 16768110266.5208                STO-SY =    26618919.3397     STORAGE         
                 WEL =           0.0000                   WEL =           0.0000     WEL_0           
                 DRN =           0.0000                   DRN =           0.0000     DRN_0           
                 RCH = 42733388910.8432                   RCH =    22607628.3000     RCH_0           

            TOTAL IN = 59501499177.3640              TOTAL IN =    49226547.6396

          OUT:                                     OUT:
          ----                                     ----
              STO-SS =           0.0000                STO-SS =           0.0000     STORAGE         
              STO-SY = 15542576220.7729                STO-SY =     4956351.9813     STORAGE         
                 WEL =  9038478860.0277                   WEL =    13316314.1861     WEL_0           
                 DRN = 34920431767.3015                   DRN =    30953857.1850     DRN_0           
                 RCH =           0.0000                   RCH =           0.0000     RCH_0           

           TOTAL OUT = 59501486848.1020             TOTAL OUT =    49226523.3524

            IN - OUT =       12329.2620              IN - OUT =          24.2872

 PERCENT DISCREPANCY =           0.00     PERCENT DISCREPANCY =           0.00




         TIME SUMMARY AT END OF TIME STEP    1 IN STRESS PERIOD  919
                          TIME STEP LENGTH =    1.00000    
                        STRESS PERIOD TIME =    1.00000    
                     TOTAL SIMULATION TIME =    919.000    

end timestep


start timestep kper="920" kstp="1" mode="normal"


 OUTPUT CONTROL FOR STRESS PERIOD 920 IS REPEATED USING SETTINGS FROM A PREVIOUS STRESS PERIOD.


 STRESS PERIOD 920 IS TRANSIENT


 REUSING WELS FROM LAST STRESS PERIOD

 REUSING DRNS FROM LAST STRESS PERIOD

 REUSING RCHS FROM LAST STRESS PERIOD


  VOLUME BUDGET FOR ENTIRE MODEL AT END OF TIME STEP    1, STRESS PERIOD 920
  ---------------------------------------------------------------------------------------------------

     CUMULATIVE VOLUME      L**3       RATES FOR THIS TIME STEP      L**3/T          PACKAGE NAME    
     ------------------                 ------------------------                     ----------------

           IN:                                      IN:
           ---                                      ---
              STO-SS =           0.0000                STO-SS =           0.0000     STORAGE         
              STO-SY = 16787354916.2270                STO-SY =    19244649.7062     STORAGE         
                 WEL =           0.0000                   WEL =           0.0000     WEL_0           
                 DRN =           0.0000                   DRN =           0.0000     DRN_0           
                 RCH = 42745255617.2131                   RCH =    11866706.3699     RCH_0           

            TOTAL IN = 59532610533.4401              TOTAL IN =    31111356.0761

          OUT:                                     OUT:
          ----                                     ----
              STO-SS =           0.0000                STO-SS =           0.0000     STORAGE         
              STO-SY = 15543862295.2367                STO-SY =     1286074.4639     STORAGE         
                 WEL =  9039901536.2212                   WEL =     1422676.1935     WEL_0           
                 DRN = 34948834343.1442                   DRN =    28402575.8427     DRN_0           
                 RCH =           0.0000                   RCH =           0.0000     RCH_0           

           TOTAL OUT = 59532598174.6020             TOTAL OUT =    31111326.5000

            IN - OUT =       12358.8381              IN - OUT =          29.5761

 PERCENT DISCREPANCY =           0.00     PERCENT DISCREPANCY =           0.00




         TIME SUMMARY AT END OF TIME STEP    1 IN STRESS PERIOD  920
                          TIME STEP LENGTH =    1.00000    
                        STRESS PERIOD TIME =    1.00000    
                     TOTAL SIMULATION TIME =    920.000    

end timestep


start timestep kper="921" kstp="1" mode="normal"


 OUTPUT CONTROL FOR STRESS PERIOD 921 IS REPEATED USING SETTINGS FROM A PREVIOUS STRESS PERIOD.


 STRESS PERIOD 921 IS TRANSIENT


 REUSING WELS FROM LAST STRESS PERIOD

 REUSING DRNS FROM LAST STRESS PERIOD

 REUSING RCHS FROM LAST STRESS PERIOD


  VOLUME BUDGET FOR ENTIRE MODEL AT END OF TIME STEP    1, STRESS PERIOD 921
  ---------------------------------------------------------------------------------------------------

     CUMULATIVE VOLUME      L**3       RATES FOR THIS TIME STEP      L**3/T          PACKAGE NAME    
     ------------------                 ------------------------                     ----------------

           IN:                                      IN:
           ---                                      ---
              STO-SS =           0.0000                STO-SS =           0.0000     STORAGE         
              STO-SY = 16808031670.1590                STO-SY =    20676753.9320     STORAGE         
                 WEL =           0.0000                   WEL =           0.0000     WEL_0           
                 DRN =           0.0000                   DRN =           0.0000     DRN_0           
                 RCH = 42760780746.8374                   RCH =    15525129.6243     RCH_0           

            TOTAL IN = 59568812416.9964              TOTAL IN =    36201883.5563

          OUT:                                     OUT:
          ----                                     ----
              STO-SS =           0.0000                STO-SS =           0.0000     STORAGE         
              STO-SY = 15546106229.1005                STO-SY =     2243933.8637     STORAGE         
                 WEL =  9044657789.4349                   WEL =     4756253.2138     WEL_0           
                 DRN = 34978036040.6794                   DRN =    29201697.5352     DRN_0           
                 RCH =           0.0000                   RCH =           0.0000     RCH_0           

           TOTAL OUT = 59568800059.2148             TOTAL OUT =    36201884.6127

            IN - OUT =       12357.7817              IN - OUT =          -1.0564

 PERCENT DISCREPANCY =           0.00     PERCENT DISCREPANCY =          -0.00




         TIME SUMMARY AT END OF TIME STEP    1 IN STRESS PERIOD  921
                          TIME STEP LENGTH =    1.00000    
                        STRESS PERIOD TIME =    1.00000    
                     TOTAL SIMULATION TIME =    921.000    

end timestep


start timestep kper="922" kstp="1" mode="normal"


 OUTPUT CONTROL FOR STRESS PERIOD 922 IS REPEATED USING SETTINGS FROM A PREVIOUS STRESS PERIOD.


 STRESS PERIOD 922 IS TRANSIENT


 REUSING WELS FROM LAST STRESS PERIOD

 REUSING DRNS FROM LAST STRESS PERIOD

 REUSING RCHS FROM LAST STRESS PERIOD


  VOLUME BUDGET FOR ENTIRE MODEL AT END OF TIME STEP    1, STRESS PERIOD 922
  ---------------------------------------------------------------------------------------------------

     CUMULATIVE VOLUME      L**3       RATES FOR THIS TIME STEP      L**3/T          PACKAGE NAME    
     ------------------                 ------------------------                     ----------------

           IN:                                      IN:
           ---                                      ---
              STO-SS =           0.0000                STO-SS =           0.0000     STORAGE         
              STO-SY = 16827076437.4436                STO-SY =    19044767.2846     STORAGE         
                 WEL =           0.0000                   WEL =           0.0000     WEL_0           
                 DRN =           0.0000                   DRN =           0.0000     DRN_0           
                 RCH = 42772057973.1550                   RCH =    11277226.3176     RCH_0           

            TOTAL IN = 59599134410.5986              TOTAL IN =    30321993.6022

          OUT:                                     OUT:
          ----                                     ----
              STO-SS =           0.0000                STO-SS =           0.0000     STORAGE         
              STO-SY = 15547318680.2225                STO-SY =     1212451.1220     STORAGE         
                 WEL =  9046029397.1400                   WEL =     1371607.7051     WEL_0           
                 DRN = 35005773978.2542                   DRN =    27737937.5748     DRN_0           
                 RCH =           0.0000                   RCH =           0.0000     RCH_0           

           TOTAL OUT = 59599122055.6166             TOTAL OUT =    30321996.4019

            IN - OUT =       12354.9820              IN - OUT =          -2.7997

 PERCENT DISCREPANCY =           0.00     PERCENT DISCREPANCY =          -0.00




         TIME SUMMARY AT END OF TIME STEP    1 IN STRESS PERIOD  922
                          TIME STEP LENGTH =    1.00000    
                        STRESS PERIOD TIME =    1.00000    
                     TOTAL SIMULATION TIME =    922.000    

end timestep


start timestep kper="923" kstp="1" mode="normal"


 OUTPUT CONTROL FOR STRESS PERIOD 923 IS REPEATED USING SETTINGS FROM A PREVIOUS STRESS PERIOD.


 STRESS PERIOD 923 IS TRANSIENT


 REUSING WELS FROM LAST STRESS PERIOD

 REUSING DRNS FROM LAST STRESS PERIOD

 REUSING RCHS FROM LAST STRESS PERIOD


  VOLUME BUDGET FOR ENTIRE MODEL AT END OF TIME STEP    1, STRESS PERIOD 923
  ---------------------------------------------------------------------------------------------------

     CUMULATIVE VOLUME      L**3       RATES FOR THIS TIME STEP      L**3/T          PACKAGE NAME    
     ------------------                 ------------------------                     ----------------

           IN:                                      IN:
           ---                                      ---
              STO-SS =           0.0000                STO-SS =           0.0000     STORAGE         
              STO-SY = 16847560956.0373                STO-SY =    20484518.5937     STORAGE         
                 WEL =           0.0000                   WEL =           0.0000     WEL_0           
                 DRN =           0.0000                   DRN =           0.0000     DRN_0           
                 RCH = 42785121461.8020                   RCH =    13063488.6470     RCH_0           

            TOTAL IN = 59632682417.8394              TOTAL IN =    33548007.2408

          OUT:                                     OUT:
          ----                                     ----
              STO-SS =           0.0000                STO-SS =           0.0000     STORAGE         
              STO-SY = 15548832187.7268                STO-SY =     1513507.5044     STORAGE         
                 WEL =  9049804652.0714                   WEL =     3775254.9314     WEL_0           
                 DRN = 35034033223.3717                   DRN =    28259245.1175     DRN_0           
                 RCH =           0.0000                   RCH =           0.0000     RCH_0           

           TOTAL OUT = 59632670063.1699             TOTAL OUT =    33548007.5533

            IN - OUT =       12354.6694              IN - OUT =          -0.3125

 PERCENT DISCREPANCY =           0.00     PERCENT DISCREPANCY =          -0.00




         TIME SUMMARY AT END OF TIME STEP    1 IN STRESS PERIOD  923
                          TIME STEP LENGTH =    1.00000    
                        STRESS PERIOD TIME =    1.00000    
                     TOTAL SIMULATION TIME =    923.000    

end timestep


start timestep kper="924" kstp="1" mode="normal"


 OUTPUT CONTROL FOR STRESS PERIOD 924 IS REPEATED USING SETTINGS FROM A PREVIOUS STRESS PERIOD.


 STRESS PERIOD 924 IS TRANSIENT


 REUSING WELS FROM LAST STRESS PERIOD

 REUSING DRNS FROM LAST STRESS PERIOD

 REUSING RCHS FROM LAST STRESS PERIOD


  VOLUME BUDGET FOR ENTIRE MODEL AT END OF TIME STEP    1, STRESS PERIOD 924
  ---------------------------------------------------------------------------------------------------

     CUMULATIVE VOLUME      L**3       RATES FOR THIS TIME STEP      L**3/T          PACKAGE NAME    
     ------------------                 ------------------------                     ----------------

           IN:                                      IN:
           ---                                      ---
              STO-SS =           0.0000                STO-SS =           0.0000     STORAGE         
              STO-SY = 16867850420.6862                STO-SY =    20289464.6489     STORAGE         
                 WEL =           0.0000                   WEL =           0.0000     WEL_0           
                 DRN =           0.0000                   DRN =           0.0000     DRN_0           
                 RCH = 42796880109.5076                   RCH =    11758647.7056     RCH_0           

            TOTAL IN = 59664730530.1939              TOTAL IN =    32048112.3545

          OUT:                                     OUT:
          ----                                     ----
              STO-SS =           0.0000                STO-SS =           0.0000     STORAGE         
              STO-SY = 15550258900.1270                STO-SY =     1426712.4001     STORAGE         
                 WEL =  9053466228.7191                   WEL =     3661576.6477     WEL_0           
                 DRN = 35060993045.1012                   DRN =    26959821.7295     DRN_0           
                 RCH =           0.0000                   RCH =           0.0000     RCH_0           

           TOTAL OUT = 59664718173.9473             TOTAL OUT =    32048110.7773

            IN - OUT =       12356.2466              IN - OUT =           1.5772

 PERCENT DISCREPANCY =           0.00     PERCENT DISCREPANCY =           0.00




         TIME SUMMARY AT END OF TIME STEP    1 IN STRESS PERIOD  924
                          TIME STEP LENGTH =    1.00000    
                        STRESS PERIOD TIME =    1.00000    
                     TOTAL SIMULATION TIME =    924.000    

end timestep


start timestep kper="925" kstp="1" mode="normal"


 OUTPUT CONTROL FOR STRESS PERIOD 925 IS REPEATED USING SETTINGS FROM A PREVIOUS STRESS PERIOD.


 STRESS PERIOD 925 IS TRANSIENT


 REUSING WELS FROM LAST STRESS PERIOD

 REUSING DRNS FROM LAST STRESS PERIOD

 REUSING RCHS FROM LAST STRESS PERIOD


  VOLUME BUDGET FOR ENTIRE MODEL AT END OF TIME STEP    1, STRESS PERIOD 925
  ---------------------------------------------------------------------------------------------------

     CUMULATIVE VOLUME      L**3       RATES FOR THIS TIME STEP      L**3/T          PACKAGE NAME    
     ------------------                 ------------------------                     ----------------

           IN:                                      IN:
           ---                                      ---
              STO-SS =           0.0000                STO-SS =           0.0000     STORAGE         
              STO-SY = 16888733441.7835                STO-SY =    20883021.0973     STORAGE         
                 WEL =           0.0000                   WEL =           0.0000     WEL_0           
                 DRN =           0.0000                   DRN =           0.0000     DRN_0           
                 RCH = 42812024615.7577                   RCH =    15144506.2501     RCH_0           

            TOTAL IN = 59700758057.5412              TOTAL IN =    36027527.3474

          OUT:                                     OUT:
          ----                                     ----
              STO-SS =           0.0000                STO-SS =           0.0000     STORAGE         
              STO-SY = 15552903396.3026                STO-SY =     2644496.1757     STORAGE         
                 WEL =  9058909878.8825                   WEL =     5443650.1635     WEL_0           
                 DRN = 35088932427.2694                   DRN =    27939382.1682     DRN_0           
                 RCH =           0.0000                   RCH =           0.0000     RCH_0           

           TOTAL OUT = 59700745702.4546             TOTAL OUT =    36027528.5073

            IN - OUT =       12355.0867              IN - OUT =          -1.1599

 PERCENT DISCREPANCY =           0.00     PERCENT DISCREPANCY =          -0.00




         TIME SUMMARY AT END OF TIME STEP    1 IN STRESS PERIOD  925
                          TIME STEP LENGTH =    1.00000    
                        STRESS PERIOD TIME =    1.00000    
                     TOTAL SIMULATION TIME =    925.000    

end timestep


start timestep kper="926" kstp="1" mode="normal"


 OUTPUT CONTROL FOR STRESS PERIOD 926 IS REPEATED USING SETTINGS FROM A PREVIOUS STRESS PERIOD.


 STRESS PERIOD 926 IS TRANSIENT


 REUSING WELS FROM LAST STRESS PERIOD

 REUSING DRNS FROM LAST STRESS PERIOD

 REUSING RCHS FROM LAST STRESS PERIOD


  VOLUME BUDGET FOR ENTIRE MODEL AT END OF TIME STEP    1, STRESS PERIOD 926
  ---------------------------------------------------------------------------------------------------

     CUMULATIVE VOLUME      L**3       RATES FOR THIS TIME STEP      L**3/T          PACKAGE NAME    
     ------------------                 ------------------------                     ----------------

           IN:                                      IN:
           ---                                      ---
              STO-SS =           0.0000                STO-SS =           0.0000     STORAGE         
              STO-SY = 16917716413.0483                STO-SY =    28982971.2648     STORAGE         
                 WEL =           0.0000                   WEL =           0.0000     WEL_0           
                 DRN =           0.0000                   DRN =           0.0000     DRN_0           
                 RCH = 42832459337.4265                   RCH =    20434721.6687     RCH_0           

            TOTAL IN = 59750175750.4748              TOTAL IN =    49417692.9336

          OUT:                                     OUT:
          ----                                     ----
              STO-SS =           0.0000                STO-SS =           0.0000     STORAGE         
              STO-SY = 15558113940.3093                STO-SY =     5210544.0067     STORAGE         
                 WEL =  9075830563.2395                   WEL =    16920684.3569     WEL_0           
                 DRN = 35116218896.4002                   DRN =    27286469.1308     DRN_0           
                 RCH =           0.0000                   RCH =           0.0000     RCH_0           

           TOTAL OUT = 59750163399.9490             TOTAL OUT =    49417697.4944

            IN - OUT =       12350.5258              IN - OUT =          -4.5608

 PERCENT DISCREPANCY =           0.00     PERCENT DISCREPANCY =          -0.00




         TIME SUMMARY AT END OF TIME STEP    1 IN STRESS PERIOD  926
                          TIME STEP LENGTH =    1.00000    
                        STRESS PERIOD TIME =    1.00000    
                     TOTAL SIMULATION TIME =    926.000    

end timestep


start timestep kper="927" kstp="1" mode="normal"


 OUTPUT CONTROL FOR STRESS PERIOD 927 IS REPEATED USING SETTINGS FROM A PREVIOUS STRESS PERIOD.


 STRESS PERIOD 927 IS TRANSIENT


 REUSING WELS FROM LAST STRESS PERIOD

 REUSING DRNS FROM LAST STRESS PERIOD

 REUSING RCHS FROM LAST STRESS PERIOD


  VOLUME BUDGET FOR ENTIRE MODEL AT END OF TIME STEP    1, STRESS PERIOD 927
  ---------------------------------------------------------------------------------------------------

     CUMULATIVE VOLUME      L**3       RATES FOR THIS TIME STEP      L**3/T          PACKAGE NAME    
     ------------------                 ------------------------                     ----------------

           IN:                                      IN:
           ---                                      ---
              STO-SS =           0.0000                STO-SS =           0.0000     STORAGE         
              STO-SY = 16936928509.2142                STO-SY =    19212096.1659     STORAGE         
                 WEL =           0.0000                   WEL =           0.0000     WEL_0           
                 DRN =           0.0000                   DRN =           0.0000     DRN_0           
                 RCH = 42842872767.7727                   RCH =    10413430.3462     RCH_0           

            TOTAL IN = 59779801276.9869              TOTAL IN =    29625526.5121

          OUT:                                     OUT:
          ----                                     ----
              STO-SS =           0.0000                STO-SS =           0.0000     STORAGE         
              STO-SY = 15559403049.7761                STO-SY =     1289109.4668     STORAGE         
                 WEL =  9077361165.7403                   WEL =     1530602.5008     WEL_0           
                 DRN = 35143024669.1137                   DRN =    26805772.7135     DRN_0           
                 RCH =           0.0000                   RCH =           0.0000     RCH_0           

           TOTAL OUT = 59779788884.6301             TOTAL OUT =    29625484.6811

            IN - OUT =       12392.3568              IN - OUT =          41.8310

 PERCENT DISCREPANCY =           0.00     PERCENT DISCREPANCY =           0.00




         TIME SUMMARY AT END OF TIME STEP    1 IN STRESS PERIOD  927
                          TIME STEP LENGTH =    1.00000    
                        STRESS PERIOD TIME =    1.00000    
                     TOTAL SIMULATION TIME =    927.000    

end timestep


start timestep kper="928" kstp="1" mode="normal"


 OUTPUT CONTROL FOR STRESS PERIOD 928 IS REPEATED USING SETTINGS FROM A PREVIOUS STRESS PERIOD.


 STRESS PERIOD 928 IS TRANSIENT


 REUSING WELS FROM LAST STRESS PERIOD

 REUSING DRNS FROM LAST STRESS PERIOD

 REUSING RCHS FROM LAST STRESS PERIOD


  VOLUME BUDGET FOR ENTIRE MODEL AT END OF TIME STEP    1, STRESS PERIOD 928
  ---------------------------------------------------------------------------------------------------

     CUMULATIVE VOLUME      L**3       RATES FOR THIS TIME STEP      L**3/T          PACKAGE NAME    
     ------------------                 ------------------------                     ----------------

           IN:                                      IN:
           ---                                      ---
              STO-SS =           0.0000                STO-SS =           0.0000     STORAGE         
              STO-SY = 16955595819.3221                STO-SY =    18667310.1079     STORAGE         
                 WEL =           0.0000                   WEL =           0.0000     WEL_0           
                 DRN =           0.0000                   DRN =           0.0000     DRN_0           
                 RCH = 42852377147.7477                   RCH =     9504379.9750     RCH_0           

            TOTAL IN = 59807972967.0698              TOTAL IN =    28171690.0829

          OUT:                                     OUT:
          ----                                     ----
              STO-SS =           0.0000                STO-SS =           0.0000     STORAGE         
              STO-SY = 15560550024.6226                STO-SY =     1146974.8465     STORAGE         
                 WEL =  9078703175.5205                   WEL =     1342009.7802     WEL_0           
                 DRN = 35168707375.3674                   DRN =    25682706.2537     DRN_0           
                 RCH =           0.0000                   RCH =           0.0000     RCH_0           

           TOTAL OUT = 59807960575.5104             TOTAL OUT =    28171690.8803

            IN - OUT =       12391.5594              IN - OUT =          -0.7974

 PERCENT DISCREPANCY =           0.00     PERCENT DISCREPANCY =          -0.00




         TIME SUMMARY AT END OF TIME STEP    1 IN STRESS PERIOD  928
                          TIME STEP LENGTH =    1.00000    
                        STRESS PERIOD TIME =    1.00000    
                     TOTAL SIMULATION TIME =    928.000    

end timestep


start timestep kper="929" kstp="1" mode="normal"


 OUTPUT CONTROL FOR STRESS PERIOD 929 IS REPEATED USING SETTINGS FROM A PREVIOUS STRESS PERIOD.


 STRESS PERIOD 929 IS TRANSIENT


 REUSING WELS FROM LAST STRESS PERIOD

 REUSING DRNS FROM LAST STRESS PERIOD

 REUSING RCHS FROM LAST STRESS PERIOD


  VOLUME BUDGET FOR ENTIRE MODEL AT END OF TIME STEP    1, STRESS PERIOD 929
  ---------------------------------------------------------------------------------------------------

     CUMULATIVE VOLUME      L**3       RATES FOR THIS TIME STEP      L**3/T          PACKAGE NAME    
     ------------------                 ------------------------                     ----------------

           IN:                                      IN:
           ---                                      ---
              STO-SS =           0.0000                STO-SS =           0.0000     STORAGE         
              STO-SY = 16974315005.4077                STO-SY =    18719186.0856     STORAGE         
                 WEL =           0.0000                   WEL =           0.0000     WEL_0           
                 DRN =           0.0000                   DRN =           0.0000     DRN_0           
                 RCH = 42862372705.2122                   RCH =     9995557.4645     RCH_0           

            TOTAL IN = 59836687710.6198              TOTAL IN =    28714743.5500

          OUT:                                     OUT:
          ----                                     ----
              STO-SS =           0.0000                STO-SS =           0.0000     STORAGE         
              STO-SY = 15561569681.8142                STO-SY =     1019657.1917     STORAGE         
                 WEL =  9080056679.1864                   WEL =     1353503.6660     WEL_0           
                 DRN = 35195048958.1094                   DRN =    26341582.7420     DRN_0           
                 RCH =           0.0000                   RCH =           0.0000     RCH_0           

           TOTAL OUT = 59836675319.1100             TOTAL OUT =    28714743.5997

            IN - OUT =       12391.5098              IN - OUT =      -4.9603E-02

 PERCENT DISCREPANCY =           0.00     PERCENT DISCREPANCY =          -0.00




         TIME SUMMARY AT END OF TIME STEP    1 IN STRESS PERIOD  929
                          TIME STEP LENGTH =    1.00000    
                        STRESS PERIOD TIME =    1.00000    
                     TOTAL SIMULATION TIME =    929.000    

end timestep


start timestep kper="930" kstp="1" mode="normal"


 OUTPUT CONTROL FOR STRESS PERIOD 930 IS REPEATED USING SETTINGS FROM A PREVIOUS STRESS PERIOD.


 STRESS PERIOD 930 IS TRANSIENT


 REUSING WELS FROM LAST STRESS PERIOD

 REUSING DRNS FROM LAST STRESS PERIOD

 REUSING RCHS FROM LAST STRESS PERIOD


  VOLUME BUDGET FOR ENTIRE MODEL AT END OF TIME STEP    1, STRESS PERIOD 930
  ---------------------------------------------------------------------------------------------------

     CUMULATIVE VOLUME      L**3       RATES FOR THIS TIME STEP      L**3/T          PACKAGE NAME    
     ------------------                 ------------------------                     ----------------

           IN:                                      IN:
           ---                                      ---
              STO-SS =           0.0000                STO-SS =           0.0000     STORAGE         
              STO-SY = 16992879802.5994                STO-SY =    18564797.1917     STORAGE         
                 WEL =           0.0000                   WEL =           0.0000     WEL_0           
                 DRN =           0.0000                   DRN =           0.0000     DRN_0           
                 RCH = 42871324347.1184                   RCH =     8951641.9063     RCH_0           

            TOTAL IN = 59864204149.7178              TOTAL IN =    27516439.0980

          OUT:                                     OUT:
          ----                                     ----
              STO-SS =           0.0000                STO-SS =           0.0000     STORAGE         
              STO-SY = 15562572561.8929                STO-SY =     1002880.0787     STORAGE         
                 WEL =  9081429033.9441                   WEL =     1372354.7577     WEL_0           
                 DRN = 35220190143.6770                   DRN =    25141185.5676     DRN_0           
                 RCH =           0.0000                   RCH =           0.0000     RCH_0           

           TOTAL OUT = 59864191739.5139             TOTAL OUT =    27516420.4039

            IN - OUT =       12410.2039              IN - OUT =          18.6941

 PERCENT DISCREPANCY =           0.00     PERCENT DISCREPANCY =           0.00




         TIME SUMMARY AT END OF TIME STEP    1 IN STRESS PERIOD  930
                          TIME STEP LENGTH =    1.00000    
                        STRESS PERIOD TIME =    1.00000    
                     TOTAL SIMULATION TIME =    930.000    

end timestep


start timestep kper="931" kstp="1" mode="normal"


 OUTPUT CONTROL FOR STRESS PERIOD 931 IS REPEATED USING SETTINGS FROM A PREVIOUS STRESS PERIOD.


 STRESS PERIOD 931 IS TRANSIENT


 REUSING WELS FROM LAST STRESS PERIOD

 REUSING DRNS FROM LAST STRESS PERIOD

 REUSING RCHS FROM LAST STRESS PERIOD


  VOLUME BUDGET FOR ENTIRE MODEL AT END OF TIME STEP    1, STRESS PERIOD 931
  ---------------------------------------------------------------------------------------------------

     CUMULATIVE VOLUME      L**3       RATES FOR THIS TIME STEP      L**3/T          PACKAGE NAME    
     ------------------                 ------------------------                     ----------------

           IN:                                      IN:
           ---                                      ---
              STO-SS =           0.0000                STO-SS =           0.0000     STORAGE         
              STO-SY = 17011755846.9354                STO-SY =    18876044.3360     STORAGE         
                 WEL =           0.0000                   WEL =           0.0000     WEL_0           
                 DRN =           0.0000                   DRN =           0.0000     DRN_0           
                 RCH = 42881059476.6038                   RCH =     9735129.4854     RCH_0           

            TOTAL IN = 59892815323.5392              TOTAL IN =    28611173.8213

          OUT:                                     OUT:
          ----                                     ----
              STO-SS =           0.0000                STO-SS =           0.0000     STORAGE         
              STO-SY = 15563524085.8141                STO-SY =      951523.9212     STORAGE         
                 WEL =  9083250002.0279                   WEL =     1820968.0838     WEL_0           
                 DRN = 35246028830.0757                   DRN =    25838686.3988     DRN_0           
                 RCH =           0.0000                   RCH =           0.0000     RCH_0           

           TOTAL OUT = 59892802917.9177             TOTAL OUT =    28611178.4038

            IN - OUT =       12405.6215              IN - OUT =          -4.5824

 PERCENT DISCREPANCY =           0.00     PERCENT DISCREPANCY =          -0.00




         TIME SUMMARY AT END OF TIME STEP    1 IN STRESS PERIOD  931
                          TIME STEP LENGTH =    1.00000    
                        STRESS PERIOD TIME =    1.00000    
                     TOTAL SIMULATION TIME =    931.000    

end timestep


start timestep kper="932" kstp="1" mode="normal"


 OUTPUT CONTROL FOR STRESS PERIOD 932 IS REPEATED USING SETTINGS FROM A PREVIOUS STRESS PERIOD.


 STRESS PERIOD 932 IS TRANSIENT


 REUSING WELS FROM LAST STRESS PERIOD

 REUSING DRNS FROM LAST STRESS PERIOD

 REUSING RCHS FROM LAST STRESS PERIOD


  VOLUME BUDGET FOR ENTIRE MODEL AT END OF TIME STEP    1, STRESS PERIOD 932
  ---------------------------------------------------------------------------------------------------

     CUMULATIVE VOLUME      L**3       RATES FOR THIS TIME STEP      L**3/T          PACKAGE NAME    
     ------------------                 ------------------------                     ----------------

           IN:                                      IN:
           ---                                      ---
              STO-SS =           0.0000                STO-SS =           0.0000     STORAGE         
              STO-SY = 17030103671.3816                STO-SY =    18347824.4462     STORAGE         
                 WEL =           0.0000                   WEL =           0.0000     WEL_0           
                 DRN =           0.0000                   DRN =           0.0000     DRN_0           
                 RCH = 42889600939.5773                   RCH =     8541462.9735     RCH_0           

            TOTAL IN = 59919704610.9589              TOTAL IN =    26889287.4197

          OUT:                                     OUT:
          ----                                     ----
              STO-SS =           0.0000                STO-SS =           0.0000     STORAGE         
              STO-SY = 15564470934.1342                STO-SY =      946848.3201     STORAGE         
                 WEL =  9084576223.7655                   WEL =     1326221.7377     WEL_0           
                 DRN = 35270645048.1071                   DRN =    24616218.0314     DRN_0           
                 RCH =           0.0000                   RCH =           0.0000     RCH_0           

           TOTAL OUT = 59919692206.0068             TOTAL OUT =    26889288.0891

            IN - OUT =       12404.9520              IN - OUT =          -0.6694

 PERCENT DISCREPANCY =           0.00     PERCENT DISCREPANCY =          -0.00




         TIME SUMMARY AT END OF TIME STEP    1 IN STRESS PERIOD  932
                          TIME STEP LENGTH =    1.00000    
                        STRESS PERIOD TIME =    1.00000    
                     TOTAL SIMULATION TIME =    932.000    

end timestep


start timestep kper="933" kstp="1" mode="normal"


 OUTPUT CONTROL FOR STRESS PERIOD 933 IS REPEATED USING SETTINGS FROM A PREVIOUS STRESS PERIOD.


 STRESS PERIOD 933 IS TRANSIENT


 REUSING WELS FROM LAST STRESS PERIOD

 REUSING DRNS FROM LAST STRESS PERIOD

 REUSING RCHS FROM LAST STRESS PERIOD


  VOLUME BUDGET FOR ENTIRE MODEL AT END OF TIME STEP    1, STRESS PERIOD 933
  ---------------------------------------------------------------------------------------------------

     CUMULATIVE VOLUME      L**3       RATES FOR THIS TIME STEP      L**3/T          PACKAGE NAME    
     ------------------                 ------------------------                     ----------------

           IN:                                      IN:
           ---                                      ---
              STO-SS =           0.0000                STO-SS =           0.0000     STORAGE         
              STO-SY = 17048460573.3588                STO-SY =    18356901.9772     STORAGE         
                 WEL =           0.0000                   WEL =           0.0000     WEL_0           
                 DRN =           0.0000                   DRN =           0.0000     DRN_0           
                 RCH = 42898814969.6438                   RCH =     9214030.0665     RCH_0           

            TOTAL IN = 59947275543.0026              TOTAL IN =    27570932.0437

          OUT:                                     OUT:
          ----                                     ----
              STO-SS =           0.0000                STO-SS =           0.0000     STORAGE         
              STO-SY = 15565320306.7895                STO-SY =      849372.6553     STORAGE         
                 WEL =  9085935776.6149                   WEL =     1359552.8494     WEL_0           
                 DRN = 35296007054.7352                   DRN =    25362006.6280     DRN_0           
                 RCH =           0.0000                   RCH =           0.0000     RCH_0           

           TOTAL OUT = 59947263138.1395             TOTAL OUT =    27570932.1327

            IN - OUT =       12404.8631              IN - OUT =      -8.8956E-02

 PERCENT DISCREPANCY =           0.00     PERCENT DISCREPANCY =          -0.00




         TIME SUMMARY AT END OF TIME STEP    1 IN STRESS PERIOD  933
                          TIME STEP LENGTH =    1.00000    
                        STRESS PERIOD TIME =    1.00000    
                     TOTAL SIMULATION TIME =    933.000    

end timestep


start timestep kper="934" kstp="1" mode="normal"


 OUTPUT CONTROL FOR STRESS PERIOD 934 IS REPEATED USING SETTINGS FROM A PREVIOUS STRESS PERIOD.


 STRESS PERIOD 934 IS TRANSIENT


 REUSING WELS FROM LAST STRESS PERIOD

 REUSING DRNS FROM LAST STRESS PERIOD

 REUSING RCHS FROM LAST STRESS PERIOD


  VOLUME BUDGET FOR ENTIRE MODEL AT END OF TIME STEP    1, STRESS PERIOD 934
  ---------------------------------------------------------------------------------------------------

     CUMULATIVE VOLUME      L**3       RATES FOR THIS TIME STEP      L**3/T          PACKAGE NAME    
     ------------------                 ------------------------                     ----------------

           IN:                                      IN:
           ---                                      ---
              STO-SS =           0.0000                STO-SS =           0.0000     STORAGE         
              STO-SY = 17066582042.4454                STO-SY =    18121469.0866     STORAGE         
                 WEL =           0.0000                   WEL =           0.0000     WEL_0           
                 DRN =           0.0000                   DRN =           0.0000     DRN_0           
                 RCH = 42907178557.5684                   RCH =     8363587.9246     RCH_0           

            TOTAL IN = 59973760600.0138              TOTAL IN =    26485057.0112

          OUT:                                     OUT:
          ----                                     ----
              STO-SS =           0.0000                STO-SS =           0.0000     STORAGE         
              STO-SY = 15566253130.5958                STO-SY =      932823.8063     STORAGE         
                 WEL =  9087264517.8764                   WEL =     1328741.2615     WEL_0           
                 DRN = 35320230548.9358                   DRN =    24223494.2006     DRN_0           
                 RCH =           0.0000                   RCH =           0.0000     RCH_0           

           TOTAL OUT = 59973748197.4080             TOTAL OUT =    26485059.2685

            IN - OUT =       12402.6058              IN - OUT =          -2.2573

 PERCENT DISCREPANCY =           0.00     PERCENT DISCREPANCY =          -0.00




         TIME SUMMARY AT END OF TIME STEP    1 IN STRESS PERIOD  934
                          TIME STEP LENGTH =    1.00000    
                        STRESS PERIOD TIME =    1.00000    
                     TOTAL SIMULATION TIME =    934.000    

end timestep


start timestep kper="935" kstp="1" mode="normal"


 OUTPUT CONTROL FOR STRESS PERIOD 935 IS REPEATED USING SETTINGS FROM A PREVIOUS STRESS PERIOD.


 STRESS PERIOD 935 IS TRANSIENT


 REUSING WELS FROM LAST STRESS PERIOD

 REUSING DRNS FROM LAST STRESS PERIOD

 REUSING RCHS FROM LAST STRESS PERIOD


  VOLUME BUDGET FOR ENTIRE MODEL AT END OF TIME STEP    1, STRESS PERIOD 935
  ---------------------------------------------------------------------------------------------------

     CUMULATIVE VOLUME      L**3       RATES FOR THIS TIME STEP      L**3/T          PACKAGE NAME    
     ------------------                 ------------------------                     ----------------

           IN:                                      IN:
           ---                                      ---
              STO-SS =           0.0000                STO-SS =           0.0000     STORAGE         
              STO-SY = 17095983377.8829                STO-SY =    29401335.4374     STORAGE         
                 WEL =           0.0000                   WEL =           0.0000     WEL_0           
                 DRN =           0.0000                   DRN =           0.0000     DRN_0           
                 RCH = 42928031418.2050                   RCH =    20852860.6366     RCH_0           

            TOTAL IN = 60024014796.0878              TOTAL IN =    50254196.0740

          OUT:                                     OUT:
          ----                                     ----
              STO-SS =           0.0000                STO-SS =           0.0000     STORAGE         
              STO-SY = 15571901881.3168                STO-SY =     5648750.7210     STORAGE         
                 WEL =  9105755496.3796                   WEL =    18490978.5032     WEL_0           
                 DRN = 35346345015.7914                   DRN =    26114466.8557     DRN_0           
                 RCH =           0.0000                   RCH =           0.0000     RCH_0           

           TOTAL OUT = 60024002393.4878             TOTAL OUT =    50254196.0798

            IN - OUT =       12402.6000              IN - OUT =      -5.8010E-03

 PERCENT DISCREPANCY =           0.00     PERCENT DISCREPANCY =          -0.00




         TIME SUMMARY AT END OF TIME STEP    1 IN STRESS PERIOD  935
                          TIME STEP LENGTH =    1.00000    
                        STRESS PERIOD TIME =    1.00000    
                     TOTAL SIMULATION TIME =    935.000    

end timestep


start timestep kper="936" kstp="1" mode="normal"


 OUTPUT CONTROL FOR STRESS PERIOD 936 IS REPEATED USING SETTINGS FROM A PREVIOUS STRESS PERIOD.


 STRESS PERIOD 936 IS TRANSIENT


 REUSING WELS FROM LAST STRESS PERIOD

 REUSING DRNS FROM LAST STRESS PERIOD

 REUSING RCHS FROM LAST STRESS PERIOD


  VOLUME BUDGET FOR ENTIRE MODEL AT END OF TIME STEP    1, STRESS PERIOD 936
  ---------------------------------------------------------------------------------------------------

     CUMULATIVE VOLUME      L**3       RATES FOR THIS TIME STEP      L**3/T          PACKAGE NAME    
     ------------------                 ------------------------                     ----------------

           IN:                                      IN:
           ---                                      ---
              STO-SS =           0.0000                STO-SS =           0.0000     STORAGE         
              STO-SY = 17123224846.4364                STO-SY =    27241468.5536     STORAGE         
                 WEL =           0.0000                   WEL =           0.0000     WEL_0           
                 DRN =           0.0000                   DRN =           0.0000     DRN_0           
                 RCH = 42948075005.9274                   RCH =    20043587.7224     RCH_0           

            TOTAL IN = 60071299852.3638              TOTAL IN =    47285056.2760

          OUT:                                     OUT:
          ----                                     ----
              STO-SS =           0.0000                STO-SS =           0.0000     STORAGE         
              STO-SY = 15578285623.3256                STO-SY =     6383742.0088     STORAGE         
                 WEL =  9121821431.7893                   WEL =    16065935.4098     WEL_0           
                 DRN = 35371180383.7601                   DRN =    24835367.9687     DRN_0           
                 RCH =           0.0000                   RCH =           0.0000     RCH_0           

           TOTAL OUT = 60071287438.8751             TOTAL OUT =    47285045.3873

            IN - OUT =       12413.4887              IN - OUT =          10.8887

 PERCENT DISCREPANCY =           0.00     PERCENT DISCREPANCY =           0.00




         TIME SUMMARY AT END OF TIME STEP    1 IN STRESS PERIOD  936
                          TIME STEP LENGTH =    1.00000    
                        STRESS PERIOD TIME =    1.00000    
                     TOTAL SIMULATION TIME =    936.000    

end timestep


start timestep kper="937" kstp="1" mode="normal"


 OUTPUT CONTROL FOR STRESS PERIOD 937 IS REPEATED USING SETTINGS FROM A PREVIOUS STRESS PERIOD.


 STRESS PERIOD 937 IS TRANSIENT


 REUSING WELS FROM LAST STRESS PERIOD

 REUSING DRNS FROM LAST STRESS PERIOD

 REUSING RCHS FROM LAST STRESS PERIOD


  VOLUME BUDGET FOR ENTIRE MODEL AT END OF TIME STEP    1, STRESS PERIOD 937
  ---------------------------------------------------------------------------------------------------

     CUMULATIVE VOLUME      L**3       RATES FOR THIS TIME STEP      L**3/T          PACKAGE NAME    
     ------------------                 ------------------------                     ----------------

           IN:                                      IN:
           ---                                      ---
              STO-SS =           0.0000                STO-SS =           0.0000     STORAGE         
              STO-SY = 17148227365.8777                STO-SY =    25002519.4412     STORAGE         
                 WEL =           0.0000                   WEL =           0.0000     WEL_0           
                 DRN =           0.0000                   DRN =           0.0000     DRN_0           
                 RCH = 42965474790.4083                   RCH =    17399784.4809     RCH_0           

            TOTAL IN = 60113702156.2860              TOTAL IN =    42402303.9221

          OUT:                                     OUT:
          ----                                     ----
              STO-SS =           0.0000                STO-SS =           0.0000     STORAGE         
              STO-SY = 15582327822.6985                STO-SY =     4042199.3728     STORAGE         
                 WEL =  9134810800.3026                   WEL =    12989368.5133     WEL_0           
                 DRN = 35396551119.7641                   DRN =    25370736.0040     DRN_0           
                 RCH =           0.0000                   RCH =           0.0000     RCH_0           

           TOTAL OUT = 60113689742.7652             TOTAL OUT =    42402303.8901

            IN - OUT =       12413.5208              IN - OUT =       3.2023E-02

 PERCENT DISCREPANCY =           0.00     PERCENT DISCREPANCY =           0.00




         TIME SUMMARY AT END OF TIME STEP    1 IN STRESS PERIOD  937
                          TIME STEP LENGTH =    1.00000    
                        STRESS PERIOD TIME =    1.00000    
                     TOTAL SIMULATION TIME =    937.000    

end timestep


start timestep kper="938" kstp="1" mode="normal"


 OUTPUT CONTROL FOR STRESS PERIOD 938 IS REPEATED USING SETTINGS FROM A PREVIOUS STRESS PERIOD.


 STRESS PERIOD 938 IS TRANSIENT


 REUSING WELS FROM LAST STRESS PERIOD

 REUSING DRNS FROM LAST STRESS PERIOD

 REUSING RCHS FROM LAST STRESS PERIOD


  VOLUME BUDGET FOR ENTIRE MODEL AT END OF TIME STEP    1, STRESS PERIOD 938
  ---------------------------------------------------------------------------------------------------

     CUMULATIVE VOLUME      L**3       RATES FOR THIS TIME STEP      L**3/T          PACKAGE NAME    
     ------------------                 ------------------------                     ----------------

           IN:                                      IN:
           ---                                      ---
              STO-SS =           0.0000                STO-SS =           0.0000     STORAGE         
              STO-SY = 17167072565.7912                STO-SY =    18845199.9135     STORAGE         
                 WEL =           0.0000                   WEL =           0.0000     WEL_0           
                 DRN =           0.0000                   DRN =           0.0000     DRN_0           
                 RCH = 42973404287.1279                   RCH =     7929496.7196     RCH_0           

            TOTAL IN = 60140476852.9191              TOTAL IN =    26774696.6332

          OUT:                                     OUT:
          ----                                     ----
              STO-SS =           0.0000                STO-SS =           0.0000     STORAGE         
              STO-SY = 15583767318.7049                STO-SY =     1439496.0064     STORAGE         
                 WEL =  9137192262.7887                   WEL =     2381462.4861     WEL_0           
                 DRN = 35419504855.3941                   DRN =    22953735.6300     DRN_0           
                 RCH =           0.0000                   RCH =           0.0000     RCH_0           

           TOTAL OUT = 60140464436.8877             TOTAL OUT =    26774694.1226

            IN - OUT =       12416.0314              IN - OUT =           2.5106

 PERCENT DISCREPANCY =           0.00     PERCENT DISCREPANCY =           0.00




         TIME SUMMARY AT END OF TIME STEP    1 IN STRESS PERIOD  938
                          TIME STEP LENGTH =    1.00000    
                        STRESS PERIOD TIME =    1.00000    
                     TOTAL SIMULATION TIME =    938.000    

end timestep


start timestep kper="939" kstp="1" mode="normal"


 OUTPUT CONTROL FOR STRESS PERIOD 939 IS REPEATED USING SETTINGS FROM A PREVIOUS STRESS PERIOD.


 STRESS PERIOD 939 IS TRANSIENT


 REUSING WELS FROM LAST STRESS PERIOD

 REUSING DRNS FROM LAST STRESS PERIOD

 REUSING RCHS FROM LAST STRESS PERIOD


  VOLUME BUDGET FOR ENTIRE MODEL AT END OF TIME STEP    1, STRESS PERIOD 939
  ---------------------------------------------------------------------------------------------------

     CUMULATIVE VOLUME      L**3       RATES FOR THIS TIME STEP      L**3/T          PACKAGE NAME    
     ------------------                 ------------------------                     ----------------

           IN:                                      IN:
           ---                                      ---
              STO-SS =           0.0000                STO-SS =           0.0000     STORAGE         
              STO-SY = 17185473362.3894                STO-SY =    18400796.5982     STORAGE         
                 WEL =           0.0000                   WEL =           0.0000     WEL_0           
                 DRN =           0.0000                   DRN =           0.0000     DRN_0           
                 RCH = 42981766134.3590                   RCH =     8361847.2311     RCH_0           

            TOTAL IN = 60167239496.7485              TOTAL IN =    26762643.8293

          OUT:                                     OUT:
          ----                                     ----
              STO-SS =           0.0000                STO-SS =           0.0000     STORAGE         
              STO-SY = 15584932466.3596                STO-SY =     1165147.6547     STORAGE         
                 WEL =  9138971748.8172                   WEL =     1779486.0285     WEL_0           
                 DRN = 35443322842.3237                   DRN =    23817986.9296     DRN_0           
                 RCH =           0.0000                   RCH =           0.0000     RCH_0           

           TOTAL OUT = 60167227057.5005             TOTAL OUT =    26762620.6128

            IN - OUT =       12439.2479              IN - OUT =          23.2165

 PERCENT DISCREPANCY =           0.00     PERCENT DISCREPANCY =           0.00




         TIME SUMMARY AT END OF TIME STEP    1 IN STRESS PERIOD  939
                          TIME STEP LENGTH =    1.00000    
                        STRESS PERIOD TIME =    1.00000    
                     TOTAL SIMULATION TIME =    939.000    

end timestep


start timestep kper="940" kstp="1" mode="normal"


 OUTPUT CONTROL FOR STRESS PERIOD 940 IS REPEATED USING SETTINGS FROM A PREVIOUS STRESS PERIOD.


 STRESS PERIOD 940 IS TRANSIENT


 REUSING WELS FROM LAST STRESS PERIOD

 REUSING DRNS FROM LAST STRESS PERIOD

 REUSING RCHS FROM LAST STRESS PERIOD


  VOLUME BUDGET FOR ENTIRE MODEL AT END OF TIME STEP    1, STRESS PERIOD 940
  ---------------------------------------------------------------------------------------------------

     CUMULATIVE VOLUME      L**3       RATES FOR THIS TIME STEP      L**3/T          PACKAGE NAME    
     ------------------                 ------------------------                     ----------------

           IN:                                      IN:
           ---                                      ---
              STO-SS =           0.0000                STO-SS =           0.0000     STORAGE         
              STO-SY = 17205918414.0853                STO-SY =    20445051.6959     STORAGE         
                 WEL =           0.0000                   WEL =           0.0000     WEL_0           
                 DRN =           0.0000                   DRN =           0.0000     DRN_0           
                 RCH = 42994114398.2870                   RCH =    12348263.9280     RCH_0           

            TOTAL IN = 60200032812.3723              TOTAL IN =    32793315.6238

          OUT:                                     OUT:
          ----                                     ----
              STO-SS =           0.0000                STO-SS =           0.0000     STORAGE         
              STO-SY = 15587611592.4743                STO-SY =     2679126.1147     STORAGE         
                 WEL =  9145955579.5160                   WEL =     6983830.6988     WEL_0           
                 DRN = 35466453184.4123                   DRN =    23130342.0887     DRN_0           
                 RCH =           0.0000                   RCH =           0.0000     RCH_0           

           TOTAL OUT = 60200020356.4026             TOTAL OUT =    32793298.9021

            IN - OUT =       12455.9697              IN - OUT =          16.7217

 PERCENT DISCREPANCY =           0.00     PERCENT DISCREPANCY =           0.00




         TIME SUMMARY AT END OF TIME STEP    1 IN STRESS PERIOD  940
                          TIME STEP LENGTH =    1.00000    
                        STRESS PERIOD TIME =    1.00000    
                     TOTAL SIMULATION TIME =    940.000    

end timestep


start timestep kper="941" kstp="1" mode="normal"


 OUTPUT CONTROL FOR STRESS PERIOD 941 IS REPEATED USING SETTINGS FROM A PREVIOUS STRESS PERIOD.


 STRESS PERIOD 941 IS TRANSIENT


 REUSING WELS FROM LAST STRESS PERIOD

 REUSING DRNS FROM LAST STRESS PERIOD

 REUSING RCHS FROM LAST STRESS PERIOD


  VOLUME BUDGET FOR ENTIRE MODEL AT END OF TIME STEP    1, STRESS PERIOD 941
  ---------------------------------------------------------------------------------------------------

     CUMULATIVE VOLUME      L**3       RATES FOR THIS TIME STEP      L**3/T          PACKAGE NAME    
     ------------------                 ------------------------                     ----------------

           IN:                                      IN:
           ---                                      ---
              STO-SS =           0.0000                STO-SS =           0.0000     STORAGE         
              STO-SY = 17224111353.1776                STO-SY =    18192939.0923     STORAGE         
                 WEL =           0.0000                   WEL =           0.0000     WEL_0           
                 DRN =           0.0000                   DRN =           0.0000     DRN_0           
                 RCH = 43003136250.7245                   RCH =     9021852.4375     RCH_0           

            TOTAL IN = 60227247603.9022              TOTAL IN =    27214791.5299

          OUT:                                     OUT:
          ----                                     ----
              STO-SS =           0.0000                STO-SS =           0.0000     STORAGE         
              STO-SY = 15589043094.8990                STO-SY =     1431502.4246     STORAGE         
                 WEL =  9148252602.4521                   WEL =     2297022.9362     WEL_0           
                 DRN = 35489939451.6535                   DRN =    23486267.2412     DRN_0           
                 RCH =           0.0000                   RCH =           0.0000     RCH_0           

           TOTAL OUT = 60227235149.0046             TOTAL OUT =    27214792.6020

            IN - OUT =       12454.8975              IN - OUT =          -1.0721

 PERCENT DISCREPANCY =           0.00     PERCENT DISCREPANCY =          -0.00




         TIME SUMMARY AT END OF TIME STEP    1 IN STRESS PERIOD  941
                          TIME STEP LENGTH =    1.00000    
                        STRESS PERIOD TIME =    1.00000    
                     TOTAL SIMULATION TIME =    941.000    

end timestep


start timestep kper="942" kstp="1" mode="normal"


 OUTPUT CONTROL FOR STRESS PERIOD 942 IS REPEATED USING SETTINGS FROM A PREVIOUS STRESS PERIOD.


 STRESS PERIOD 942 IS TRANSIENT


 REUSING WELS FROM LAST STRESS PERIOD

 REUSING DRNS FROM LAST STRESS PERIOD

 REUSING RCHS FROM LAST STRESS PERIOD


  VOLUME BUDGET FOR ENTIRE MODEL AT END OF TIME STEP    1, STRESS PERIOD 942
  ---------------------------------------------------------------------------------------------------

     CUMULATIVE VOLUME      L**3       RATES FOR THIS TIME STEP      L**3/T          PACKAGE NAME    
     ------------------                 ------------------------                     ----------------

           IN:                                      IN:
           ---                                      ---
              STO-SS =           0.0000                STO-SS =           0.0000     STORAGE         
              STO-SY = 17242047602.9582                STO-SY =    17936249.7806     STORAGE         
                 WEL =           0.0000                   WEL =           0.0000     WEL_0           
                 DRN =           0.0000                   DRN =           0.0000     DRN_0           
                 RCH = 43009942803.9024                   RCH =     6806553.1779     RCH_0           

            TOTAL IN = 60251990406.8606              TOTAL IN =    24742802.9585

          OUT:                                     OUT:
          ----                                     ----
              STO-SS =           0.0000                STO-SS =           0.0000     STORAGE         
              STO-SY = 15590113464.3534                STO-SY =     1070369.4545     STORAGE         
                 WEL =  9149792294.1681                   WEL =     1539691.7159     WEL_0           
                 DRN = 35512072193.2929                   DRN =    22132741.6394     DRN_0           
                 RCH =           0.0000                   RCH =           0.0000     RCH_0           

           TOTAL OUT = 60251977951.8144             TOTAL OUT =    24742802.8097

            IN - OUT =       12455.0463              IN - OUT =           0.1487

 PERCENT DISCREPANCY =           0.00     PERCENT DISCREPANCY =           0.00




         TIME SUMMARY AT END OF TIME STEP    1 IN STRESS PERIOD  942
                          TIME STEP LENGTH =    1.00000    
                        STRESS PERIOD TIME =    1.00000    
                     TOTAL SIMULATION TIME =    942.000    

end timestep


start timestep kper="943" kstp="1" mode="normal"


 OUTPUT CONTROL FOR STRESS PERIOD 943 IS REPEATED USING SETTINGS FROM A PREVIOUS STRESS PERIOD.


 STRESS PERIOD 943 IS TRANSIENT


 REUSING WELS FROM LAST STRESS PERIOD

 REUSING DRNS FROM LAST STRESS PERIOD

 REUSING RCHS FROM LAST STRESS PERIOD


  VOLUME BUDGET FOR ENTIRE MODEL AT END OF TIME STEP    1, STRESS PERIOD 943
  ---------------------------------------------------------------------------------------------------

     CUMULATIVE VOLUME      L**3       RATES FOR THIS TIME STEP      L**3/T          PACKAGE NAME    
     ------------------                 ------------------------                     ----------------

           IN:                                      IN:
           ---                                      ---
              STO-SS =           0.0000                STO-SS =           0.0000     STORAGE         
              STO-SY = 17261071417.5656                STO-SY =    19023814.6074     STORAGE         
                 WEL =           0.0000                   WEL =           0.0000     WEL_0           
                 DRN =           0.0000                   DRN =           0.0000     DRN_0           
                 RCH = 43019948029.5525                   RCH =    10005225.6501     RCH_0           

            TOTAL IN = 60281019447.1181              TOTAL IN =    29029040.2575

          OUT:                                     OUT:
          ----                                     ----
              STO-SS =           0.0000                STO-SS =           0.0000     STORAGE         
              STO-SY = 15591668248.0756                STO-SY =     1554783.7221     STORAGE         
                 WEL =  9154039475.8121                   WEL =     4247181.6441     WEL_0           
                 DRN = 35535298952.5583                   DRN =    23226759.2655     DRN_0           
                 RCH =           0.0000                   RCH =           0.0000     RCH_0           

           TOTAL OUT = 60281006676.4461             TOTAL OUT =    29028724.6317

            IN - OUT =       12770.6721              IN - OUT =         315.6258

 PERCENT DISCREPANCY =           0.00     PERCENT DISCREPANCY =           0.00




         TIME SUMMARY AT END OF TIME STEP    1 IN STRESS PERIOD  943
                          TIME STEP LENGTH =    1.00000    
                        STRESS PERIOD TIME =    1.00000    
                     TOTAL SIMULATION TIME =    943.000    

end timestep


start timestep kper="944" kstp="1" mode="normal"


 OUTPUT CONTROL FOR STRESS PERIOD 944 IS REPEATED USING SETTINGS FROM A PREVIOUS STRESS PERIOD.


 STRESS PERIOD 944 IS TRANSIENT


 REUSING WELS FROM LAST STRESS PERIOD

 REUSING DRNS FROM LAST STRESS PERIOD

 REUSING RCHS FROM LAST STRESS PERIOD


  VOLUME BUDGET FOR ENTIRE MODEL AT END OF TIME STEP    1, STRESS PERIOD 944
  ---------------------------------------------------------------------------------------------------

     CUMULATIVE VOLUME      L**3       RATES FOR THIS TIME STEP      L**3/T          PACKAGE NAME    
     ------------------                 ------------------------                     ----------------

           IN:                                      IN:
           ---                                      ---
              STO-SS =           0.0000                STO-SS =           0.0000     STORAGE         
              STO-SY = 17298949185.3894                STO-SY =    37877767.8238     STORAGE         
                 WEL =           0.0000                   WEL =           0.0000     WEL_0           
                 DRN =           0.0000                   DRN =           0.0000     DRN_0           
                 RCH = 43050819851.8981                   RCH =    30871822.3456     RCH_0           

            TOTAL IN = 60349769037.2875              TOTAL IN =    68749590.1694

          OUT:                                     OUT:
          ----                                     ----
              STO-SS =           0.0000                STO-SS =           0.0000     STORAGE         
              STO-SY = 15603045104.7882                STO-SY =    11376856.7126     STORAGE         
                 WEL =  9185573490.3908                   WEL =    31534014.5787     WEL_0           
                 DRN = 35561137637.6314                   DRN =    25838685.0731     DRN_0           
                 RCH =           0.0000                   RCH =           0.0000     RCH_0           

           TOTAL OUT = 60349756232.8105             TOTAL OUT =    68749556.3644

            IN - OUT =       12804.4771              IN - OUT =          33.8050

 PERCENT DISCREPANCY =           0.00     PERCENT DISCREPANCY =           0.00




         TIME SUMMARY AT END OF TIME STEP    1 IN STRESS PERIOD  944
                          TIME STEP LENGTH =    1.00000    
                        STRESS PERIOD TIME =    1.00000    
                     TOTAL SIMULATION TIME =    944.000    

end timestep


start timestep kper="945" kstp="1" mode="normal"


 OUTPUT CONTROL FOR STRESS PERIOD 945 IS REPEATED USING SETTINGS FROM A PREVIOUS STRESS PERIOD.


 STRESS PERIOD 945 IS TRANSIENT


 REUSING WELS FROM LAST STRESS PERIOD

 REUSING DRNS FROM LAST STRESS PERIOD

 REUSING RCHS FROM LAST STRESS PERIOD


  VOLUME BUDGET FOR ENTIRE MODEL AT END OF TIME STEP    1, STRESS PERIOD 945
  ---------------------------------------------------------------------------------------------------

     CUMULATIVE VOLUME      L**3       RATES FOR THIS TIME STEP      L**3/T          PACKAGE NAME    
     ------------------                 ------------------------                     ----------------

           IN:                                      IN:
           ---                                      ---
              STO-SS =           0.0000                STO-SS =           0.0000     STORAGE         
              STO-SY = 17320267257.6401                STO-SY =    21318072.2507     STORAGE         
                 WEL =           0.0000                   WEL =           0.0000     WEL_0           
                 DRN =           0.0000                   DRN =           0.0000     DRN_0           
                 RCH = 43064113479.0267                   RCH =    13293627.1285     RCH_0           

            TOTAL IN = 60384380736.6667              TOTAL IN =    34611699.3792

          OUT:                                     OUT:
          ----                                     ----
              STO-SS =           0.0000                STO-SS =           0.0000     STORAGE         
              STO-SY = 15606525320.4910                STO-SY =     3480215.7028     STORAGE         
                 WEL =  9193677290.8477                   WEL =     8103800.4569     WEL_0           
                 DRN = 35584165323.3135                   DRN =    23027685.6820     DRN_0           
                 RCH =           0.0000                   RCH =           0.0000     RCH_0           

           TOTAL OUT = 60384367934.6521             TOTAL OUT =    34611701.8417

            IN - OUT =       12802.0146              IN - OUT =          -2.4625

 PERCENT DISCREPANCY =           0.00     PERCENT DISCREPANCY =          -0.00




         TIME SUMMARY AT END OF TIME STEP    1 IN STRESS PERIOD  945
                          TIME STEP LENGTH =    1.00000    
                        STRESS PERIOD TIME =    1.00000    
                     TOTAL SIMULATION TIME =    945.000    

end timestep


start timestep kper="946" kstp="1" mode="normal"


 OUTPUT CONTROL FOR STRESS PERIOD 946 IS REPEATED USING SETTINGS FROM A PREVIOUS STRESS PERIOD.


 STRESS PERIOD 946 IS TRANSIENT


 REUSING WELS FROM LAST STRESS PERIOD

 REUSING DRNS FROM LAST STRESS PERIOD

 REUSING RCHS FROM LAST STRESS PERIOD


  VOLUME BUDGET FOR ENTIRE MODEL AT END OF TIME STEP    1, STRESS PERIOD 946
  ---------------------------------------------------------------------------------------------------

     CUMULATIVE VOLUME      L**3       RATES FOR THIS TIME STEP      L**3/T          PACKAGE NAME    
     ------------------                 ------------------------                     ----------------

           IN:                                      IN:
           ---                                      ---
              STO-SS =           0.0000                STO-SS =           0.0000     STORAGE         
              STO-SY = 17359381312.6943                STO-SY =    39114055.0543     STORAGE         
                 WEL =           0.0000                   WEL =           0.0000     WEL_0           
                 DRN =           0.0000                   DRN =           0.0000     DRN_0           
                 RCH = 43086642820.9086                   RCH =    22529341.8819     RCH_0           

            TOTAL IN = 60446024133.6029              TOTAL IN =    61643396.9362

          OUT:                                     OUT:
          ----                                     ----
              STO-SS =           0.0000                STO-SS =           0.0000     STORAGE         
              STO-SY = 15611891015.1088                STO-SY =     5365694.6178     STORAGE         
                 WEL =  9228142097.9932                   WEL =    34464807.1455     WEL_0           
                 DRN = 35605978219.5486                   DRN =    21812896.2352     DRN_0           
                 RCH =           0.0000                   RCH =           0.0000     RCH_0           

           TOTAL OUT = 60446011332.6506             TOTAL OUT =    61643397.9985

            IN - OUT =       12800.9523              IN - OUT =          -1.0623

 PERCENT DISCREPANCY =           0.00     PERCENT DISCREPANCY =          -0.00




         TIME SUMMARY AT END OF TIME STEP    1 IN STRESS PERIOD  946
                          TIME STEP LENGTH =    1.00000    
                        STRESS PERIOD TIME =    1.00000    
                     TOTAL SIMULATION TIME =    946.000    

end timestep


start timestep kper="947" kstp="1" mode="normal"


 OUTPUT CONTROL FOR STRESS PERIOD 947 IS REPEATED USING SETTINGS FROM A PREVIOUS STRESS PERIOD.


 STRESS PERIOD 947 IS TRANSIENT


 REUSING WELS FROM LAST STRESS PERIOD

 REUSING DRNS FROM LAST STRESS PERIOD

 REUSING RCHS FROM LAST STRESS PERIOD


  VOLUME BUDGET FOR ENTIRE MODEL AT END OF TIME STEP    1, STRESS PERIOD 947
  ---------------------------------------------------------------------------------------------------

     CUMULATIVE VOLUME      L**3       RATES FOR THIS TIME STEP      L**3/T          PACKAGE NAME    
     ------------------                 ------------------------                     ----------------

           IN:                                      IN:
           ---                                      ---
              STO-SS =           0.0000                STO-SS =           0.0000     STORAGE         
              STO-SY = 17389225007.4096                STO-SY =    29843694.7153     STORAGE         
                 WEL =           0.0000                   WEL =           0.0000     WEL_0           
                 DRN =           0.0000                   DRN =           0.0000     DRN_0           
                 RCH = 43098999869.9288                   RCH =    12357049.0202     RCH_0           

            TOTAL IN = 60488224877.3384              TOTAL IN =    42200743.7355

          OUT:                                     OUT:
          ----                                     ----
              STO-SS =           0.0000                STO-SS =           0.0000     STORAGE         
              STO-SY = 15613527904.9153                STO-SY =     1636889.8065     STORAGE         
                 WEL =  9247198660.5263                   WEL =    19056562.5331     WEL_0           
                 DRN = 35627485491.0397                   DRN =    21507271.4911     DRN_0           
                 RCH =           0.0000                   RCH =           0.0000     RCH_0           

           TOTAL OUT = 60488212056.4813             TOTAL OUT =    42200723.8307

            IN - OUT =       12820.8571              IN - OUT =          19.9048

 PERCENT DISCREPANCY =           0.00     PERCENT DISCREPANCY =           0.00




         TIME SUMMARY AT END OF TIME STEP    1 IN STRESS PERIOD  947
                          TIME STEP LENGTH =    1.00000    
                        STRESS PERIOD TIME =    1.00000    
                     TOTAL SIMULATION TIME =    947.000    

end timestep


start timestep kper="948" kstp="1" mode="normal"


 OUTPUT CONTROL FOR STRESS PERIOD 948 IS REPEATED USING SETTINGS FROM A PREVIOUS STRESS PERIOD.


 STRESS PERIOD 948 IS TRANSIENT


 REUSING WELS FROM LAST STRESS PERIOD

 REUSING DRNS FROM LAST STRESS PERIOD

 REUSING RCHS FROM LAST STRESS PERIOD


  VOLUME BUDGET FOR ENTIRE MODEL AT END OF TIME STEP    1, STRESS PERIOD 948
  ---------------------------------------------------------------------------------------------------

     CUMULATIVE VOLUME      L**3       RATES FOR THIS TIME STEP      L**3/T          PACKAGE NAME    
     ------------------                 ------------------------                     ----------------

           IN:                                      IN:
           ---                                      ---
              STO-SS =           0.0000                STO-SS =           0.0000     STORAGE         
              STO-SY = 17409877290.2729                STO-SY =    20652282.8632     STORAGE         
                 WEL =           0.0000                   WEL =           0.0000     WEL_0           
                 DRN =           0.0000                   DRN =           0.0000     DRN_0           
                 RCH = 43107999058.2022                   RCH =     8999188.2735     RCH_0           

            TOTAL IN = 60517876348.4751              TOTAL IN =    29651471.1367

          OUT:                                     OUT:
          ----                                     ----
              STO-SS =           0.0000                STO-SS =           0.0000     STORAGE         
              STO-SY = 15615451307.4057                STO-SY =     1923402.4904     STORAGE         
                 WEL =  9254414589.2872                   WEL =     7215928.7609     WEL_0           
                 DRN = 35647997629.0102                   DRN =    20512137.9705     DRN_0           
                 RCH =           0.0000                   RCH =           0.0000     RCH_0           

           TOTAL OUT = 60517863525.7031             TOTAL OUT =    29651469.2218

            IN - OUT =       12822.7720              IN - OUT =           1.9149

 PERCENT DISCREPANCY =           0.00     PERCENT DISCREPANCY =           0.00




         TIME SUMMARY AT END OF TIME STEP    1 IN STRESS PERIOD  948
                          TIME STEP LENGTH =    1.00000    
                        STRESS PERIOD TIME =    1.00000    
                     TOTAL SIMULATION TIME =    948.000    

end timestep


start timestep kper="949" kstp="1" mode="normal"


 OUTPUT CONTROL FOR STRESS PERIOD 949 IS REPEATED USING SETTINGS FROM A PREVIOUS STRESS PERIOD.


 STRESS PERIOD 949 IS TRANSIENT


 REUSING WELS FROM LAST STRESS PERIOD

 REUSING DRNS FROM LAST STRESS PERIOD

 REUSING RCHS FROM LAST STRESS PERIOD


  VOLUME BUDGET FOR ENTIRE MODEL AT END OF TIME STEP    1, STRESS PERIOD 949
  ---------------------------------------------------------------------------------------------------

     CUMULATIVE VOLUME      L**3       RATES FOR THIS TIME STEP      L**3/T          PACKAGE NAME    
     ------------------                 ------------------------                     ----------------

           IN:                                      IN:
           ---                                      ---
              STO-SS =           0.0000                STO-SS =           0.0000     STORAGE         
              STO-SY = 17428500458.9275                STO-SY =    18623168.6546     STORAGE         
                 WEL =           0.0000                   WEL =           0.0000     WEL_0           
                 DRN =           0.0000                   DRN =           0.0000     DRN_0           
                 RCH = 43116322122.3439                   RCH =     8323064.1417     RCH_0           

            TOTAL IN = 60544822581.2714              TOTAL IN =    26946232.7963

          OUT:                                     OUT:
          ----                                     ----
              STO-SS =           0.0000                STO-SS =           0.0000     STORAGE         
              STO-SY = 15617176731.5764                STO-SY =     1725424.1707     STORAGE         
                 WEL =  9258125387.8909                   WEL =     3710798.6037     WEL_0           
                 DRN = 35669507638.9738                   DRN =    21510009.9636     DRN_0           
                 RCH =           0.0000                   RCH =           0.0000     RCH_0           

           TOTAL OUT = 60544809758.4411             TOTAL OUT =    26946232.7380

            IN - OUT =       12822.8304              IN - OUT =       5.8348E-02

 PERCENT DISCREPANCY =           0.00     PERCENT DISCREPANCY =           0.00




         TIME SUMMARY AT END OF TIME STEP    1 IN STRESS PERIOD  949
                          TIME STEP LENGTH =    1.00000    
                        STRESS PERIOD TIME =    1.00000    
                     TOTAL SIMULATION TIME =    949.000    

end timestep


start timestep kper="950" kstp="1" mode="normal"


 OUTPUT CONTROL FOR STRESS PERIOD 950 IS REPEATED USING SETTINGS FROM A PREVIOUS STRESS PERIOD.


 STRESS PERIOD 950 IS TRANSIENT


 REUSING WELS FROM LAST STRESS PERIOD

 REUSING DRNS FROM LAST STRESS PERIOD

 REUSING RCHS FROM LAST STRESS PERIOD


  VOLUME BUDGET FOR ENTIRE MODEL AT END OF TIME STEP    1, STRESS PERIOD 950
  ---------------------------------------------------------------------------------------------------

     CUMULATIVE VOLUME      L**3       RATES FOR THIS TIME STEP      L**3/T          PACKAGE NAME    
     ------------------                 ------------------------                     ----------------

           IN:                                      IN:
           ---                                      ---
              STO-SS =           0.0000                STO-SS =           0.0000     STORAGE         
              STO-SY = 17451449521.3470                STO-SY =    22949062.4195     STORAGE         
                 WEL =           0.0000                   WEL =           0.0000     WEL_0           
                 DRN =           0.0000                   DRN =           0.0000     DRN_0           
                 RCH = 43126783365.7846                   RCH =    10461243.4406     RCH_0           

            TOTAL IN = 60578232887.1315              TOTAL IN =    33410305.8601

          OUT:                                     OUT:
          ----                                     ----
              STO-SS =           0.0000                STO-SS =           0.0000     STORAGE         
              STO-SY = 15619320472.3512                STO-SY =     2143740.7748     STORAGE         
                 WEL =  9268943542.0322                   WEL =    10818154.1413     WEL_0           
                 DRN = 35689956049.3275                   DRN =    20448410.3537     DRN_0           
                 RCH =           0.0000                   RCH =           0.0000     RCH_0           

           TOTAL OUT = 60578220063.7109             TOTAL OUT =    33410305.2699

            IN - OUT =       12823.4206              IN - OUT =           0.5902

 PERCENT DISCREPANCY =           0.00     PERCENT DISCREPANCY =           0.00




         TIME SUMMARY AT END OF TIME STEP    1 IN STRESS PERIOD  950
                          TIME STEP LENGTH =    1.00000    
                        STRESS PERIOD TIME =    1.00000    
                     TOTAL SIMULATION TIME =    950.000    

end timestep


start timestep kper="951" kstp="1" mode="normal"


 OUTPUT CONTROL FOR STRESS PERIOD 951 IS REPEATED USING SETTINGS FROM A PREVIOUS STRESS PERIOD.


 STRESS PERIOD 951 IS TRANSIENT


 REUSING WELS FROM LAST STRESS PERIOD

 REUSING DRNS FROM LAST STRESS PERIOD

 REUSING RCHS FROM LAST STRESS PERIOD


  VOLUME BUDGET FOR ENTIRE MODEL AT END OF TIME STEP    1, STRESS PERIOD 951
  ---------------------------------------------------------------------------------------------------

     CUMULATIVE VOLUME      L**3       RATES FOR THIS TIME STEP      L**3/T          PACKAGE NAME    
     ------------------                 ------------------------                     ----------------

           IN:                                      IN:
           ---                                      ---
              STO-SS =           0.0000                STO-SS =           0.0000     STORAGE         
              STO-SY = 17472484406.6222                STO-SY =    21034885.2752     STORAGE         
                 WEL =           0.0000                   WEL =           0.0000     WEL_0           
                 DRN =           0.0000                   DRN =           0.0000     DRN_0           
                 RCH = 43138062337.8719                   RCH =    11278972.0873     RCH_0           

            TOTAL IN = 60610546744.4940              TOTAL IN =    32313857.3625

          OUT:                                     OUT:
          ----                                     ----
              STO-SS =           0.0000                STO-SS =           0.0000     STORAGE         
              STO-SY = 15621775506.8391                STO-SY =     2455034.4879     STORAGE         
                 WEL =  9277475844.6317                   WEL =     8532302.5994     WEL_0           
                 DRN = 35711282572.5944                   DRN =    21326523.2669     DRN_0           
                 RCH =           0.0000                   RCH =           0.0000     RCH_0           

           TOTAL OUT = 60610533924.0652             TOTAL OUT =    32313860.3542

            IN - OUT =       12820.4289              IN - OUT =          -2.9917

 PERCENT DISCREPANCY =           0.00     PERCENT DISCREPANCY =          -0.00




         TIME SUMMARY AT END OF TIME STEP    1 IN STRESS PERIOD  951
                          TIME STEP LENGTH =    1.00000    
                        STRESS PERIOD TIME =    1.00000    
                     TOTAL SIMULATION TIME =    951.000    

end timestep


start timestep kper="952" kstp="1" mode="normal"


 OUTPUT CONTROL FOR STRESS PERIOD 952 IS REPEATED USING SETTINGS FROM A PREVIOUS STRESS PERIOD.


 STRESS PERIOD 952 IS TRANSIENT


 REUSING WELS FROM LAST STRESS PERIOD

 REUSING DRNS FROM LAST STRESS PERIOD

 REUSING RCHS FROM LAST STRESS PERIOD


  VOLUME BUDGET FOR ENTIRE MODEL AT END OF TIME STEP    1, STRESS PERIOD 952
  ---------------------------------------------------------------------------------------------------

     CUMULATIVE VOLUME      L**3       RATES FOR THIS TIME STEP      L**3/T          PACKAGE NAME    
     ------------------                 ------------------------                     ----------------

           IN:                                      IN:
           ---                                      ---
              STO-SS =           0.0000                STO-SS =           0.0000     STORAGE         
              STO-SY = 17508550538.0007                STO-SY =    36066131.3785     STORAGE         
                 WEL =           0.0000                   WEL =           0.0000     WEL_0           
                 DRN =           0.0000                   DRN =           0.0000     DRN_0           
                 RCH = 43165904749.3337                   RCH =    27842411.4618     RCH_0           

            TOTAL IN = 60674455287.3344              TOTAL IN =    63908542.8403

          OUT:                                     OUT:
          ----                                     ----
              STO-SS =           0.0000                STO-SS =           0.0000     STORAGE         
              STO-SY = 15630260304.5089                STO-SY =     8484797.6698     STORAGE         
                 WEL =  9309306899.5298                   WEL =    31831054.8982     WEL_0           
                 DRN = 35734875262.4122                   DRN =    23592689.8178     DRN_0           
                 RCH =           0.0000                   RCH =           0.0000     RCH_0           

           TOTAL OUT = 60674442466.4509             TOTAL OUT =    63908542.3857

            IN - OUT =       12820.8834              IN - OUT =           0.4546

 PERCENT DISCREPANCY =           0.00     PERCENT DISCREPANCY =           0.00




         TIME SUMMARY AT END OF TIME STEP    1 IN STRESS PERIOD  952
                          TIME STEP LENGTH =    1.00000    
                        STRESS PERIOD TIME =    1.00000    
                     TOTAL SIMULATION TIME =    952.000    

end timestep


start timestep kper="953" kstp="1" mode="normal"


 OUTPUT CONTROL FOR STRESS PERIOD 953 IS REPEATED USING SETTINGS FROM A PREVIOUS STRESS PERIOD.


 STRESS PERIOD 953 IS TRANSIENT


 REUSING WELS FROM LAST STRESS PERIOD

 REUSING DRNS FROM LAST STRESS PERIOD

 REUSING RCHS FROM LAST STRESS PERIOD


  VOLUME BUDGET FOR ENTIRE MODEL AT END OF TIME STEP    1, STRESS PERIOD 953
  ---------------------------------------------------------------------------------------------------

     CUMULATIVE VOLUME      L**3       RATES FOR THIS TIME STEP      L**3/T          PACKAGE NAME    
     ------------------                 ------------------------                     ----------------

           IN:                                      IN:
           ---                                      ---
              STO-SS =           0.0000                STO-SS =           0.0000     STORAGE         
              STO-SY = 17544966994.8783                STO-SY =    36416456.8776     STORAGE         
                 WEL =           0.0000                   WEL =           0.0000     WEL_0           
                 DRN =           0.0000                   DRN =           0.0000     DRN_0           
                 RCH = 43192489695.4193                   RCH =    26584946.0857     RCH_0           

            TOTAL IN = 60737456690.2976              TOTAL IN =    63001402.9632

          OUT:                                     OUT:
          ----                                     ----
              STO-SS =           0.0000                STO-SS =           0.0000     STORAGE         
              STO-SY = 15637880280.6710                STO-SY =     7619976.1621     STORAGE         
                 WEL =  9342077640.7173                   WEL =    32770741.1874     WEL_0           
                 DRN = 35757485959.6355                   DRN =    22610697.2233     DRN_0           
                 RCH =           0.0000                   RCH =           0.0000     RCH_0           

           TOTAL OUT = 60737443881.0237             TOTAL OUT =    63001414.5728

            IN - OUT =       12809.2739              IN - OUT =         -11.6095

 PERCENT DISCREPANCY =           0.00     PERCENT DISCREPANCY =          -0.00




         TIME SUMMARY AT END OF TIME STEP    1 IN STRESS PERIOD  953
                          TIME STEP LENGTH =    1.00000    
                        STRESS PERIOD TIME =    1.00000    
                     TOTAL SIMULATION TIME =    953.000    

end timestep


start timestep kper="954" kstp="1" mode="normal"


 OUTPUT CONTROL FOR STRESS PERIOD 954 IS REPEATED USING SETTINGS FROM A PREVIOUS STRESS PERIOD.


 STRESS PERIOD 954 IS TRANSIENT


 REUSING WELS FROM LAST STRESS PERIOD

 REUSING DRNS FROM LAST STRESS PERIOD

 REUSING RCHS FROM LAST STRESS PERIOD


  VOLUME BUDGET FOR ENTIRE MODEL AT END OF TIME STEP    1, STRESS PERIOD 954
  ---------------------------------------------------------------------------------------------------

     CUMULATIVE VOLUME      L**3       RATES FOR THIS TIME STEP      L**3/T          PACKAGE NAME    
     ------------------                 ------------------------                     ----------------

           IN:                                      IN:
           ---                                      ---
              STO-SS =           0.0000                STO-SS =           0.0000     STORAGE         
              STO-SY = 17562943987.8412                STO-SY =    17976992.9629     STORAGE         
                 WEL =           0.0000                   WEL =           0.0000     WEL_0           
                 DRN =           0.0000                   DRN =           0.0000     DRN_0           
                 RCH = 43199374207.0099                   RCH =     6884511.5906     RCH_0           

            TOTAL IN = 60762318194.8511              TOTAL IN =    24861504.5535

          OUT:                                     OUT:
          ----                                     ----
              STO-SS =           0.0000                STO-SS =           0.0000     STORAGE         
              STO-SY = 15640253534.4063                STO-SY =     2373253.7353     STORAGE         
                 WEL =  9345179817.9270                   WEL =     3102177.2098     WEL_0           
                 DRN = 35776872015.4397                   DRN =    19386055.8042     DRN_0           
                 RCH =           0.0000                   RCH =           0.0000     RCH_0           

           TOTAL OUT = 60762305367.7730             TOTAL OUT =    24861486.7493

            IN - OUT =       12827.0781              IN - OUT =          17.8042

 PERCENT DISCREPANCY =           0.00     PERCENT DISCREPANCY =           0.00




         TIME SUMMARY AT END OF TIME STEP    1 IN STRESS PERIOD  954
                          TIME STEP LENGTH =    1.00000    
                        STRESS PERIOD TIME =    1.00000    
                     TOTAL SIMULATION TIME =    954.000    

end timestep


start timestep kper="955" kstp="1" mode="normal"


 OUTPUT CONTROL FOR STRESS PERIOD 955 IS REPEATED USING SETTINGS FROM A PREVIOUS STRESS PERIOD.


 STRESS PERIOD 955 IS TRANSIENT


 REUSING WELS FROM LAST STRESS PERIOD

 REUSING DRNS FROM LAST STRESS PERIOD

 REUSING RCHS FROM LAST STRESS PERIOD


  VOLUME BUDGET FOR ENTIRE MODEL AT END OF TIME STEP    1, STRESS PERIOD 955
  ---------------------------------------------------------------------------------------------------

     CUMULATIVE VOLUME      L**3       RATES FOR THIS TIME STEP      L**3/T          PACKAGE NAME    
     ------------------                 ------------------------                     ----------------

           IN:                                      IN:
           ---                                      ---
              STO-SS =           0.0000                STO-SS =           0.0000     STORAGE         
              STO-SY = 17586301727.2120                STO-SY =    23357739.3708     STORAGE         
                 WEL =           0.0000                   WEL =           0.0000     WEL_0           
                 DRN =           0.0000                   DRN =           0.0000     DRN_0           
                 RCH = 43215756663.1459                   RCH =    16382456.1359     RCH_0           

            TOTAL IN = 60802058390.3578              TOTAL IN =    39740195.5067

          OUT:                                     OUT:
          ----                                     ----
              STO-SS =           0.0000                STO-SS =           0.0000     STORAGE         
              STO-SY = 15644611200.0298                STO-SY =     4357665.6235     STORAGE         
                 WEL =  9358695647.0331                   WEL =    13515829.1061     WEL_0           
                 DRN = 35798738709.8779                   DRN =    21866694.4382     DRN_0           
                 RCH =           0.0000                   RCH =           0.0000     RCH_0           

           TOTAL OUT = 60802045556.9408             TOTAL OUT =    39740189.1677

            IN - OUT =       12833.4171              IN - OUT =           6.3390

 PERCENT DISCREPANCY =           0.00     PERCENT DISCREPANCY =           0.00




         TIME SUMMARY AT END OF TIME STEP    1 IN STRESS PERIOD  955
                          TIME STEP LENGTH =    1.00000    
                        STRESS PERIOD TIME =    1.00000    
                     TOTAL SIMULATION TIME =    955.000    

end timestep


start timestep kper="956" kstp="1" mode="normal"


 OUTPUT CONTROL FOR STRESS PERIOD 956 IS REPEATED USING SETTINGS FROM A PREVIOUS STRESS PERIOD.


 STRESS PERIOD 956 IS TRANSIENT


 REUSING WELS FROM LAST STRESS PERIOD

 REUSING DRNS FROM LAST STRESS PERIOD

 REUSING RCHS FROM LAST STRESS PERIOD


  VOLUME BUDGET FOR ENTIRE MODEL AT END OF TIME STEP    1, STRESS PERIOD 956
  ---------------------------------------------------------------------------------------------------

     CUMULATIVE VOLUME      L**3       RATES FOR THIS TIME STEP      L**3/T          PACKAGE NAME    
     ------------------                 ------------------------                     ----------------

           IN:                                      IN:
           ---                                      ---
              STO-SS =           0.0000                STO-SS =           0.0000     STORAGE         
              STO-SY = 17604134555.4047                STO-SY =    17832828.1927     STORAGE         
                 WEL =           0.0000                   WEL =           0.0000     WEL_0           
                 DRN =           0.0000                   DRN =           0.0000     DRN_0           
                 RCH = 43221258740.6570                   RCH =     5502077.5111     RCH_0           

            TOTAL IN = 60825393296.0617              TOTAL IN =    23334905.7038

          OUT:                                     OUT:
          ----                                     ----
              STO-SS =           0.0000                STO-SS =           0.0000     STORAGE         
              STO-SY = 15646492873.4345                STO-SY =     1881673.4047     STORAGE         
                 WEL =  9361003597.0006                   WEL =     2307949.9675     WEL_0           
                 DRN = 35817883976.1795                   DRN =    19145266.3017     DRN_0           
                 RCH =           0.0000                   RCH =           0.0000     RCH_0           

           TOTAL OUT = 60825380446.6146             TOTAL OUT =    23334889.6739

            IN - OUT =       12849.4470              IN - OUT =          16.0299

 PERCENT DISCREPANCY =           0.00     PERCENT DISCREPANCY =           0.00




         TIME SUMMARY AT END OF TIME STEP    1 IN STRESS PERIOD  956
                          TIME STEP LENGTH =    1.00000    
                        STRESS PERIOD TIME =    1.00000    
                     TOTAL SIMULATION TIME =    956.000    

end timestep


start timestep kper="957" kstp="1" mode="normal"


 OUTPUT CONTROL FOR STRESS PERIOD 957 IS REPEATED USING SETTINGS FROM A PREVIOUS STRESS PERIOD.


 STRESS PERIOD 957 IS TRANSIENT


 REUSING WELS FROM LAST STRESS PERIOD

 REUSING DRNS FROM LAST STRESS PERIOD

 REUSING RCHS FROM LAST STRESS PERIOD


  VOLUME BUDGET FOR ENTIRE MODEL AT END OF TIME STEP    1, STRESS PERIOD 957
  ---------------------------------------------------------------------------------------------------

     CUMULATIVE VOLUME      L**3       RATES FOR THIS TIME STEP      L**3/T          PACKAGE NAME    
     ------------------                 ------------------------                     ----------------

           IN:                                      IN:
           ---                                      ---
              STO-SS =           0.0000                STO-SS =           0.0000     STORAGE         
              STO-SY = 17632048384.3402                STO-SY =    27913828.9355     STORAGE         
                 WEL =           0.0000                   WEL =           0.0000     WEL_0           
                 DRN =           0.0000                   DRN =           0.0000     DRN_0           
                 RCH = 43240887989.0181                   RCH =    19629248.3611     RCH_0           

            TOTAL IN = 60872936373.3583              TOTAL IN =    47543077.2966

          OUT:                                     OUT:
          ----                                     ----
              STO-SS =           0.0000                STO-SS =           0.0000     STORAGE         
              STO-SY = 15650886424.9273                STO-SY =     4393551.4928     STORAGE         
                 WEL =  9382068236.4477                   WEL =    21064639.4471     WEL_0           
                 DRN = 35839968855.5783                   DRN =    22084879.3988     DRN_0           
                 RCH =           0.0000                   RCH =           0.0000     RCH_0           

           TOTAL OUT = 60872923516.9533             TOTAL OUT =    47543070.3386

            IN - OUT =       12856.4050              IN - OUT =           6.9579

 PERCENT DISCREPANCY =           0.00     PERCENT DISCREPANCY =           0.00




         TIME SUMMARY AT END OF TIME STEP    1 IN STRESS PERIOD  957
                          TIME STEP LENGTH =    1.00000    
                        STRESS PERIOD TIME =    1.00000    
                     TOTAL SIMULATION TIME =    957.000    

end timestep


start timestep kper="958" kstp="1" mode="normal"


 OUTPUT CONTROL FOR STRESS PERIOD 958 IS REPEATED USING SETTINGS FROM A PREVIOUS STRESS PERIOD.


 STRESS PERIOD 958 IS TRANSIENT


 REUSING WELS FROM LAST STRESS PERIOD

 REUSING DRNS FROM LAST STRESS PERIOD

 REUSING RCHS FROM LAST STRESS PERIOD


  VOLUME BUDGET FOR ENTIRE MODEL AT END OF TIME STEP    1, STRESS PERIOD 958
  ---------------------------------------------------------------------------------------------------

     CUMULATIVE VOLUME      L**3       RATES FOR THIS TIME STEP      L**3/T          PACKAGE NAME    
     ------------------                 ------------------------                     ----------------

           IN:                                      IN:
           ---                                      ---
              STO-SS =           0.0000                STO-SS =           0.0000     STORAGE         
              STO-SY = 17666314415.5036                STO-SY =    34266031.1634     STORAGE         
                 WEL =           0.0000                   WEL =           0.0000     WEL_0           
                 DRN =           0.0000                   DRN =           0.0000     DRN_0           
                 RCH = 43264923717.6645                   RCH =    24035728.6464     RCH_0           

            TOTAL IN = 60931238133.1681              TOTAL IN =    58301759.8098

          OUT:                                     OUT:
          ----                                     ----
              STO-SS =           0.0000                STO-SS =           0.0000     STORAGE         
              STO-SY = 15657709125.4995                STO-SY =     6822700.5723     STORAGE         
                 WEL =  9412748893.0456                   WEL =    30680656.5979     WEL_0           
                 DRN = 35860767261.0721                   DRN =    20798405.4938     DRN_0           
                 RCH =           0.0000                   RCH =           0.0000     RCH_0           

           TOTAL OUT = 60931225279.6172             TOTAL OUT =    58301762.6639

            IN - OUT =       12853.5508              IN - OUT =          -2.8541

 PERCENT DISCREPANCY =           0.00     PERCENT DISCREPANCY =          -0.00




         TIME SUMMARY AT END OF TIME STEP    1 IN STRESS PERIOD  958
                          TIME STEP LENGTH =    1.00000    
                        STRESS PERIOD TIME =    1.00000    
                     TOTAL SIMULATION TIME =    958.000    

end timestep


start timestep kper="959" kstp="1" mode="normal"


 OUTPUT CONTROL FOR STRESS PERIOD 959 IS REPEATED USING SETTINGS FROM A PREVIOUS STRESS PERIOD.


 STRESS PERIOD 959 IS TRANSIENT


 REUSING WELS FROM LAST STRESS PERIOD

 REUSING DRNS FROM LAST STRESS PERIOD

 REUSING RCHS FROM LAST STRESS PERIOD


  VOLUME BUDGET FOR ENTIRE MODEL AT END OF TIME STEP    1, STRESS PERIOD 959
  ---------------------------------------------------------------------------------------------------

     CUMULATIVE VOLUME      L**3       RATES FOR THIS TIME STEP      L**3/T          PACKAGE NAME    
     ------------------                 ------------------------                     ----------------

           IN:                                      IN:
           ---                                      ---
              STO-SS =           0.0000                STO-SS =           0.0000     STORAGE         
              STO-SY = 17684164455.8312                STO-SY =    17850040.3277     STORAGE         
                 WEL =           0.0000                   WEL =           0.0000     WEL_0           
                 DRN =           0.0000                   DRN =           0.0000     DRN_0           
                 RCH = 43272466047.7278                   RCH =     7542330.0632     RCH_0           

            TOTAL IN = 60956630503.5590              TOTAL IN =    25392370.3909

          OUT:                                     OUT:
          ----                                     ----
              STO-SS =           0.0000                STO-SS =           0.0000     STORAGE         
              STO-SY = 15659929023.9630                STO-SY =     2219898.4635     STORAGE         
                 WEL =  9416147806.6670                   WEL =     3398913.6213     WEL_0           
                 DRN = 35880540765.8577                   DRN =    19773504.7856     DRN_0           
                 RCH =           0.0000                   RCH =           0.0000     RCH_0           

           TOTAL OUT = 60956617596.4877             TOTAL OUT =    25392316.8705

            IN - OUT =       12907.0713              IN - OUT =          53.5205

 PERCENT DISCREPANCY =           0.00     PERCENT DISCREPANCY =           0.00




         TIME SUMMARY AT END OF TIME STEP    1 IN STRESS PERIOD  959
                          TIME STEP LENGTH =    1.00000    
                        STRESS PERIOD TIME =    1.00000    
                     TOTAL SIMULATION TIME =    959.000    

end timestep


start timestep kper="960" kstp="1" mode="normal"


 OUTPUT CONTROL FOR STRESS PERIOD 960 IS REPEATED USING SETTINGS FROM A PREVIOUS STRESS PERIOD.


 STRESS PERIOD 960 IS TRANSIENT


 REUSING WELS FROM LAST STRESS PERIOD

 REUSING DRNS FROM LAST STRESS PERIOD

 REUSING RCHS FROM LAST STRESS PERIOD


  VOLUME BUDGET FOR ENTIRE MODEL AT END OF TIME STEP    1, STRESS PERIOD 960
  ---------------------------------------------------------------------------------------------------

     CUMULATIVE VOLUME      L**3       RATES FOR THIS TIME STEP      L**3/T          PACKAGE NAME    
     ------------------                 ------------------------                     ----------------

           IN:                                      IN:
           ---                                      ---
              STO-SS =           0.0000                STO-SS =           0.0000     STORAGE         
              STO-SY = 17701034369.2634                STO-SY =    16869913.4321     STORAGE         
                 WEL =           0.0000                   WEL =           0.0000     WEL_0           
                 DRN =           0.0000                   DRN =           0.0000     DRN_0           
                 RCH = 43278393290.1828                   RCH =     5927242.4551     RCH_0           

            TOTAL IN = 60979427659.4462              TOTAL IN =    22797155.8872

          OUT:                                     OUT:
          ----                                     ----
              STO-SS =           0.0000                STO-SS =           0.0000     STORAGE         
              STO-SY = 15662123057.0701                STO-SY =     2194033.1072     STORAGE         
                 WEL =  9418072960.3683                   WEL =     1925153.7014     WEL_0           
                 DRN = 35899218759.1680                   DRN =    18677993.3102     DRN_0           
                 RCH =           0.0000                   RCH =           0.0000     RCH_0           

           TOTAL OUT = 60979414776.6064             TOTAL OUT =    22797180.1187

            IN - OUT =       12882.8397              IN - OUT =         -24.2316

 PERCENT DISCREPANCY =           0.00     PERCENT DISCREPANCY =          -0.00




         TIME SUMMARY AT END OF TIME STEP    1 IN STRESS PERIOD  960
                          TIME STEP LENGTH =    1.00000    
                        STRESS PERIOD TIME =    1.00000    
                     TOTAL SIMULATION TIME =    960.000    

end timestep


start timestep kper="961" kstp="1" mode="normal"


 OUTPUT CONTROL FOR STRESS PERIOD 961 IS REPEATED USING SETTINGS FROM A PREVIOUS STRESS PERIOD.


 STRESS PERIOD 961 IS TRANSIENT


 REUSING WELS FROM LAST STRESS PERIOD

 REUSING DRNS FROM LAST STRESS PERIOD

 REUSING RCHS FROM LAST STRESS PERIOD


  VOLUME BUDGET FOR ENTIRE MODEL AT END OF TIME STEP    1, STRESS PERIOD 961
  ---------------------------------------------------------------------------------------------------

     CUMULATIVE VOLUME      L**3       RATES FOR THIS TIME STEP      L**3/T          PACKAGE NAME    
     ------------------                 ------------------------                     ----------------

           IN:                                      IN:
           ---                                      ---
              STO-SS =           0.0000                STO-SS =           0.0000     STORAGE         
              STO-SY = 17723020882.3470                STO-SY =    21986513.0837     STORAGE         
                 WEL =           0.0000                   WEL =           0.0000     WEL_0           
                 DRN =           0.0000                   DRN =           0.0000     DRN_0           
                 RCH = 43288537798.4330                   RCH =    10144508.2502     RCH_0           

            TOTAL IN = 61011558680.7800              TOTAL IN =    32131021.3339

          OUT:                                     OUT:
          ----                                     ----
              STO-SS =           0.0000                STO-SS =           0.0000     STORAGE         
              STO-SY = 15664211899.8896                STO-SY =     2088842.8194     STORAGE         
                 WEL =  9428608210.9576                   WEL =    10535250.5892     WEL_0           
                 DRN = 35918725685.3604                   DRN =    19506926.1924     DRN_0           
                 RCH =           0.0000                   RCH =           0.0000     RCH_0           

           TOTAL OUT = 61011545796.2075             TOTAL OUT =    32131019.6011

            IN - OUT =       12884.5725              IN - OUT =           1.7328

 PERCENT DISCREPANCY =           0.00     PERCENT DISCREPANCY =           0.00




         TIME SUMMARY AT END OF TIME STEP    1 IN STRESS PERIOD  961
                          TIME STEP LENGTH =    1.00000    
                        STRESS PERIOD TIME =    1.00000    
                     TOTAL SIMULATION TIME =    961.000    

end timestep


start timestep kper="962" kstp="1" mode="normal"


 OUTPUT CONTROL FOR STRESS PERIOD 962 IS REPEATED USING SETTINGS FROM A PREVIOUS STRESS PERIOD.


 STRESS PERIOD 962 IS TRANSIENT


 REUSING WELS FROM LAST STRESS PERIOD

 REUSING DRNS FROM LAST STRESS PERIOD

 REUSING RCHS FROM LAST STRESS PERIOD


  VOLUME BUDGET FOR ENTIRE MODEL AT END OF TIME STEP    1, STRESS PERIOD 962
  ---------------------------------------------------------------------------------------------------

     CUMULATIVE VOLUME      L**3       RATES FOR THIS TIME STEP      L**3/T          PACKAGE NAME    
     ------------------                 ------------------------                     ----------------

           IN:                                      IN:
           ---                                      ---
              STO-SS =           0.0000                STO-SS =           0.0000     STORAGE         
              STO-SY = 17755281798.5498                STO-SY =    32260916.2028     STORAGE         
                 WEL =           0.0000                   WEL =           0.0000     WEL_0           
                 DRN =           0.0000                   DRN =           0.0000     DRN_0           
                 RCH = 43311900696.3084                   RCH =    23362897.8754     RCH_0           

            TOTAL IN = 61067182494.8582              TOTAL IN =    55623814.0782

          OUT:                                     OUT:
          ----                                     ----
              STO-SS =           0.0000                STO-SS =           0.0000     STORAGE         
              STO-SY = 15671355218.4629                STO-SY =     7143318.5733     STORAGE         
                 WEL =  9457262151.5397                   WEL =    28653940.5821     WEL_0           
                 DRN = 35938552266.4380                   DRN =    19826581.0776     DRN_0           
                 RCH =           0.0000                   RCH =           0.0000     RCH_0           

           TOTAL OUT = 61067169636.4406             TOTAL OUT =    55623840.2331

            IN - OUT =       12858.4176              IN - OUT =         -26.1549

 PERCENT DISCREPANCY =           0.00     PERCENT DISCREPANCY =          -0.00




         TIME SUMMARY AT END OF TIME STEP    1 IN STRESS PERIOD  962
                          TIME STEP LENGTH =    1.00000    
                        STRESS PERIOD TIME =    1.00000    
                     TOTAL SIMULATION TIME =    962.000    

end timestep


start timestep kper="963" kstp="1" mode="normal"


 OUTPUT CONTROL FOR STRESS PERIOD 963 IS REPEATED USING SETTINGS FROM A PREVIOUS STRESS PERIOD.


 STRESS PERIOD 963 IS TRANSIENT


 REUSING WELS FROM LAST STRESS PERIOD

 REUSING DRNS FROM LAST STRESS PERIOD

 REUSING RCHS FROM LAST STRESS PERIOD


  VOLUME BUDGET FOR ENTIRE MODEL AT END OF TIME STEP    1, STRESS PERIOD 963
  ---------------------------------------------------------------------------------------------------

     CUMULATIVE VOLUME      L**3       RATES FOR THIS TIME STEP      L**3/T          PACKAGE NAME    
     ------------------                 ------------------------                     ----------------

           IN:                                      IN:
           ---                                      ---
              STO-SS =           0.0000                STO-SS =           0.0000     STORAGE         
              STO-SY = 17772178086.7084                STO-SY =    16896288.1585     STORAGE         
                 WEL =           0.0000                   WEL =           0.0000     WEL_0           
                 DRN =           0.0000                   DRN =           0.0000     DRN_0           
                 RCH = 43318654830.9039                   RCH =     6754134.5955     RCH_0           

            TOTAL IN = 61090832917.6123              TOTAL IN =    23650422.7541

          OUT:                                     OUT:
          ----                                     ----
              STO-SS =           0.0000                STO-SS =           0.0000     STORAGE         
              STO-SY = 15673739714.4899                STO-SY =     2384496.0270     STORAGE         
                 WEL =  9459291289.3825                   WEL =     2029137.8428     WEL_0           
                 DRN = 35957789052.6936                   DRN =    19236786.2556     DRN_0           
                 RCH =           0.0000                   RCH =           0.0000     RCH_0           

           TOTAL OUT = 61090820056.5660             TOTAL OUT =    23650420.1254

            IN - OUT =       12861.0463              IN - OUT =           2.6287

 PERCENT DISCREPANCY =           0.00     PERCENT DISCREPANCY =           0.00




         TIME SUMMARY AT END OF TIME STEP    1 IN STRESS PERIOD  963
                          TIME STEP LENGTH =    1.00000    
                        STRESS PERIOD TIME =    1.00000    
                     TOTAL SIMULATION TIME =    963.000    

end timestep


start timestep kper="964" kstp="1" mode="normal"


 OUTPUT CONTROL FOR STRESS PERIOD 964 IS REPEATED USING SETTINGS FROM A PREVIOUS STRESS PERIOD.


 STRESS PERIOD 964 IS TRANSIENT


 REUSING WELS FROM LAST STRESS PERIOD

 REUSING DRNS FROM LAST STRESS PERIOD

 REUSING RCHS FROM LAST STRESS PERIOD


  VOLUME BUDGET FOR ENTIRE MODEL AT END OF TIME STEP    1, STRESS PERIOD 964
  ---------------------------------------------------------------------------------------------------

     CUMULATIVE VOLUME      L**3       RATES FOR THIS TIME STEP      L**3/T          PACKAGE NAME    
     ------------------                 ------------------------                     ----------------

           IN:                                      IN:
           ---                                      ---
              STO-SS =           0.0000                STO-SS =           0.0000     STORAGE         
              STO-SY = 17795845615.2362                STO-SY =    23667528.5279     STORAGE         
                 WEL =           0.0000                   WEL =           0.0000     WEL_0           
                 DRN =           0.0000                   DRN =           0.0000     DRN_0           
                 RCH = 43334653607.2079                   RCH =    15998776.3040     RCH_0           

            TOTAL IN = 61130499222.4442              TOTAL IN =    39666304.8319

          OUT:                                     OUT:
          ----                                     ----
              STO-SS =           0.0000                STO-SS =           0.0000     STORAGE         
              STO-SY = 15677922135.4570                STO-SY =     4182420.9671     STORAGE         
                 WEL =  9475576193.0604                   WEL =    16284903.6779     WEL_0           
                 DRN = 35976988030.3992                   DRN =    19198977.7056     DRN_0           
                 RCH =           0.0000                   RCH =           0.0000     RCH_0           

           TOTAL OUT = 61130486358.9166             TOTAL OUT =    39666302.3505

            IN - OUT =       12863.5276              IN - OUT =           2.4813

 PERCENT DISCREPANCY =           0.00     PERCENT DISCREPANCY =           0.00




         TIME SUMMARY AT END OF TIME STEP    1 IN STRESS PERIOD  964
                          TIME STEP LENGTH =    1.00000    
                        STRESS PERIOD TIME =    1.00000    
                     TOTAL SIMULATION TIME =    964.000    

end timestep


start timestep kper="965" kstp="1" mode="normal"


 OUTPUT CONTROL FOR STRESS PERIOD 965 IS REPEATED USING SETTINGS FROM A PREVIOUS STRESS PERIOD.


 STRESS PERIOD 965 IS TRANSIENT


 REUSING WELS FROM LAST STRESS PERIOD

 REUSING DRNS FROM LAST STRESS PERIOD

 REUSING RCHS FROM LAST STRESS PERIOD


  VOLUME BUDGET FOR ENTIRE MODEL AT END OF TIME STEP    1, STRESS PERIOD 965
  ---------------------------------------------------------------------------------------------------

     CUMULATIVE VOLUME      L**3       RATES FOR THIS TIME STEP      L**3/T          PACKAGE NAME    
     ------------------                 ------------------------                     ----------------

           IN:                                      IN:
           ---                                      ---
              STO-SS =           0.0000                STO-SS =           0.0000     STORAGE         
              STO-SY = 17836366488.8464                STO-SY =    40520873.6102     STORAGE         
                 WEL =           0.0000                   WEL =           0.0000     WEL_0           
                 DRN =           0.0000                   DRN =           0.0000     DRN_0           
                 RCH = 43363489249.6036                   RCH =    28835642.3956     RCH_0           

            TOTAL IN = 61199855738.4500              TOTAL IN =    69356516.0058

          OUT:                                     OUT:
          ----                                     ----
              STO-SS =           0.0000                STO-SS =           0.0000     STORAGE         
              STO-SY = 15685172465.1302                STO-SY =     7250329.6732     STORAGE         
                 WEL =  9516980986.7999                   WEL =    41404793.7395     WEL_0           
                 DRN = 35997689428.6502                   DRN =    20701398.2510     DRN_0           
                 RCH =           0.0000                   RCH =           0.0000     RCH_0           

           TOTAL OUT = 61199842880.5803             TOTAL OUT =    69356521.6637

            IN - OUT =       12857.8697              IN - OUT =          -5.6579

 PERCENT DISCREPANCY =           0.00     PERCENT DISCREPANCY =          -0.00




         TIME SUMMARY AT END OF TIME STEP    1 IN STRESS PERIOD  965
                          TIME STEP LENGTH =    1.00000    
                        STRESS PERIOD TIME =    1.00000    
                     TOTAL SIMULATION TIME =    965.000    

end timestep


start timestep kper="966" kstp="1" mode="normal"


 OUTPUT CONTROL FOR STRESS PERIOD 966 IS REPEATED USING SETTINGS FROM A PREVIOUS STRESS PERIOD.


 STRESS PERIOD 966 IS TRANSIENT


 REUSING WELS FROM LAST STRESS PERIOD

 REUSING DRNS FROM LAST STRESS PERIOD

 REUSING RCHS FROM LAST STRESS PERIOD


  VOLUME BUDGET FOR ENTIRE MODEL AT END OF TIME STEP    1, STRESS PERIOD 966
  ---------------------------------------------------------------------------------------------------

     CUMULATIVE VOLUME      L**3       RATES FOR THIS TIME STEP      L**3/T          PACKAGE NAME    
     ------------------                 ------------------------                     ----------------

           IN:                                      IN:
           ---                                      ---
              STO-SS =           0.0000                STO-SS =           0.0000     STORAGE         
              STO-SY = 17859442478.7109                STO-SY =    23075989.8645     STORAGE         
                 WEL =           0.0000                   WEL =           0.0000     WEL_0           
                 DRN =           0.0000                   DRN =           0.0000     DRN_0           
                 RCH = 43377633549.8882                   RCH =    14144300.2846     RCH_0           

            TOTAL IN = 61237076028.5991              TOTAL IN =    37220290.1491

          OUT:                                     OUT:
          ----                                     ----
              STO-SS =           0.0000                STO-SS =           0.0000     STORAGE         
              STO-SY = 15689174808.5493                STO-SY =     4002343.4191     STORAGE         
                 WEL =  9531007017.7806                   WEL =    14026030.9807     WEL_0           
                 DRN = 36016881309.6520                   DRN =    19191881.0019     DRN_0           
                 RCH =           0.0000                   RCH =           0.0000     RCH_0           

           TOTAL OUT = 61237063135.9819             TOTAL OUT =    37220255.4016

            IN - OUT =       12892.6172              IN - OUT =          34.7475

 PERCENT DISCREPANCY =           0.00     PERCENT DISCREPANCY =           0.00




         TIME SUMMARY AT END OF TIME STEP    1 IN STRESS PERIOD  966
                          TIME STEP LENGTH =    1.00000    
                        STRESS PERIOD TIME =    1.00000    
                     TOTAL SIMULATION TIME =    966.000    

end timestep


start timestep kper="967" kstp="1" mode="normal"


 OUTPUT CONTROL FOR STRESS PERIOD 967 IS REPEATED USING SETTINGS FROM A PREVIOUS STRESS PERIOD.


 STRESS PERIOD 967 IS TRANSIENT


 REUSING WELS FROM LAST STRESS PERIOD

 REUSING DRNS FROM LAST STRESS PERIOD

 REUSING RCHS FROM LAST STRESS PERIOD


  VOLUME BUDGET FOR ENTIRE MODEL AT END OF TIME STEP    1, STRESS PERIOD 967
  ---------------------------------------------------------------------------------------------------

     CUMULATIVE VOLUME      L**3       RATES FOR THIS TIME STEP      L**3/T          PACKAGE NAME    
     ------------------                 ------------------------                     ----------------

           IN:                                      IN:
           ---                                      ---
              STO-SS =           0.0000                STO-SS =           0.0000     STORAGE         
              STO-SY = 17880149924.9651                STO-SY =    20707446.2542     STORAGE         
                 WEL =           0.0000                   WEL =           0.0000     WEL_0           
                 DRN =           0.0000                   DRN =           0.0000     DRN_0           
                 RCH = 43390660036.6897                   RCH =    13026486.8015     RCH_0           

            TOTAL IN = 61270809961.6548              TOTAL IN =    33733933.0557

          OUT:                                     OUT:
          ----                                     ----
              STO-SS =           0.0000                STO-SS =           0.0000     STORAGE         
              STO-SY = 15692829090.5947                STO-SY =     3654282.0454     STORAGE         
                 WEL =  9541799881.4959                   WEL =    10792863.7153     WEL_0           
                 DRN = 36036168077.0892                   DRN =    19286767.4371     DRN_0           
                 RCH =           0.0000                   RCH =           0.0000     RCH_0           

           TOTAL OUT = 61270797049.1798             TOTAL OUT =    33733913.1979

            IN - OUT =       12912.4751              IN - OUT =          19.8579

 PERCENT DISCREPANCY =           0.00     PERCENT DISCREPANCY =           0.00




         TIME SUMMARY AT END OF TIME STEP    1 IN STRESS PERIOD  967
                          TIME STEP LENGTH =    1.00000    
                        STRESS PERIOD TIME =    1.00000    
                     TOTAL SIMULATION TIME =    967.000    

end timestep


start timestep kper="968" kstp="1" mode="normal"


 OUTPUT CONTROL FOR STRESS PERIOD 968 IS REPEATED USING SETTINGS FROM A PREVIOUS STRESS PERIOD.


 STRESS PERIOD 968 IS TRANSIENT


 REUSING WELS FROM LAST STRESS PERIOD

 REUSING DRNS FROM LAST STRESS PERIOD

 REUSING RCHS FROM LAST STRESS PERIOD


  VOLUME BUDGET FOR ENTIRE MODEL AT END OF TIME STEP    1, STRESS PERIOD 968
  ---------------------------------------------------------------------------------------------------

     CUMULATIVE VOLUME      L**3       RATES FOR THIS TIME STEP      L**3/T          PACKAGE NAME    
     ------------------                 ------------------------                     ----------------

           IN:                                      IN:
           ---                                      ---
              STO-SS =           0.0000                STO-SS =           0.0000     STORAGE         
              STO-SY = 17896999259.6666                STO-SY =    16849334.7015     STORAGE         
                 WEL =           0.0000                   WEL =           0.0000     WEL_0           
                 DRN =           0.0000                   DRN =           0.0000     DRN_0           
                 RCH = 43398313650.7670                   RCH =     7653614.0773     RCH_0           

            TOTAL IN = 61295312910.4335              TOTAL IN =    24502948.7787

          OUT:                                     OUT:
          ----                                     ----
              STO-SS =           0.0000                STO-SS =           0.0000     STORAGE         
              STO-SY = 15695575506.6633                STO-SY =     2746416.0686     STORAGE         
                 WEL =  9545729786.8754                   WEL =     3929905.3795     WEL_0           
                 DRN = 36053994703.0404                   DRN =    17826625.9512     DRN_0           
                 RCH =           0.0000                   RCH =           0.0000     RCH_0           

           TOTAL OUT = 61295299996.5791             TOTAL OUT =    24502947.3993

            IN - OUT =       12913.8544              IN - OUT =           1.3794

 PERCENT DISCREPANCY =           0.00     PERCENT DISCREPANCY =           0.00




         TIME SUMMARY AT END OF TIME STEP    1 IN STRESS PERIOD  968
                          TIME STEP LENGTH =    1.00000    
                        STRESS PERIOD TIME =    1.00000    
                     TOTAL SIMULATION TIME =    968.000    

end timestep


start timestep kper="969" kstp="1" mode="normal"


 OUTPUT CONTROL FOR STRESS PERIOD 969 IS REPEATED USING SETTINGS FROM A PREVIOUS STRESS PERIOD.


 STRESS PERIOD 969 IS TRANSIENT


 REUSING WELS FROM LAST STRESS PERIOD

 REUSING DRNS FROM LAST STRESS PERIOD

 REUSING RCHS FROM LAST STRESS PERIOD


  VOLUME BUDGET FOR ENTIRE MODEL AT END OF TIME STEP    1, STRESS PERIOD 969
  ---------------------------------------------------------------------------------------------------

     CUMULATIVE VOLUME      L**3       RATES FOR THIS TIME STEP      L**3/T          PACKAGE NAME    
     ------------------                 ------------------------                     ----------------

           IN:                                      IN:
           ---                                      ---
              STO-SS =           0.0000                STO-SS =           0.0000     STORAGE         
              STO-SY = 17913480116.6245                STO-SY =    16480856.9580     STORAGE         
                 WEL =           0.0000                   WEL =           0.0000     WEL_0           
                 DRN =           0.0000                   DRN =           0.0000     DRN_0           
                 RCH = 43403760696.6484                   RCH =     5447045.8814     RCH_0           

            TOTAL IN = 61317240813.2730              TOTAL IN =    21927902.8394

          OUT:                                     OUT:
          ----                                     ----
              STO-SS =           0.0000                STO-SS =           0.0000     STORAGE         
              STO-SY = 15697568064.2914                STO-SY =     1992557.6281     STORAGE         
                 WEL =  9547083958.8206                   WEL =     1354171.9452     WEL_0           
                 DRN = 36072575878.3121                   DRN =    18581175.2717     DRN_0           
                 RCH =           0.0000                   RCH =           0.0000     RCH_0           

           TOTAL OUT = 61317227901.4241             TOTAL OUT =    21927904.8450

            IN - OUT =       12911.8489              IN - OUT =          -2.0056

 PERCENT DISCREPANCY =           0.00     PERCENT DISCREPANCY =          -0.00




         TIME SUMMARY AT END OF TIME STEP    1 IN STRESS PERIOD  969
                          TIME STEP LENGTH =    1.00000    
                        STRESS PERIOD TIME =    1.00000    
                     TOTAL SIMULATION TIME =    969.000    

end timestep


start timestep kper="970" kstp="1" mode="normal"


 OUTPUT CONTROL FOR STRESS PERIOD 970 IS REPEATED USING SETTINGS FROM A PREVIOUS STRESS PERIOD.


 STRESS PERIOD 970 IS TRANSIENT


 REUSING WELS FROM LAST STRESS PERIOD

 REUSING DRNS FROM LAST STRESS PERIOD

 REUSING RCHS FROM LAST STRESS PERIOD


  VOLUME BUDGET FOR ENTIRE MODEL AT END OF TIME STEP    1, STRESS PERIOD 970
  ---------------------------------------------------------------------------------------------------

     CUMULATIVE VOLUME      L**3       RATES FOR THIS TIME STEP      L**3/T          PACKAGE NAME    
     ------------------                 ------------------------                     ----------------

           IN:                                      IN:
           ---                                      ---
              STO-SS =           0.0000                STO-SS =           0.0000     STORAGE         
              STO-SY = 17952935343.8235                STO-SY =    39455227.1989     STORAGE         
                 WEL =           0.0000                   WEL =           0.0000     WEL_0           
                 DRN =           0.0000                   DRN =           0.0000     DRN_0           
                 RCH = 43435738797.2139                   RCH =    31978100.5655     RCH_0           

            TOTAL IN = 61388674141.0374              TOTAL IN =    71433327.7644

          OUT:                                     OUT:
          ----                                     ----
              STO-SS =           0.0000                STO-SS =           0.0000     STORAGE         
              STO-SY = 15706214955.2279                STO-SY =     8646890.9365     STORAGE         
                 WEL =  9587963154.8383                   WEL =    40879196.0177     WEL_0           
                 DRN = 36094483081.7363                   DRN =    21907203.4242     DRN_0           
                 RCH =           0.0000                   RCH =           0.0000     RCH_0           

           TOTAL OUT = 61388661191.8025             TOTAL OUT =    71433290.3783

            IN - OUT =       12949.2350              IN - OUT =          37.3861

 PERCENT DISCREPANCY =           0.00     PERCENT DISCREPANCY =           0.00




         TIME SUMMARY AT END OF TIME STEP    1 IN STRESS PERIOD  970
                          TIME STEP LENGTH =    1.00000    
                        STRESS PERIOD TIME =    1.00000    
                     TOTAL SIMULATION TIME =    970.000    

end timestep


start timestep kper="971" kstp="1" mode="normal"


 OUTPUT CONTROL FOR STRESS PERIOD 971 IS REPEATED USING SETTINGS FROM A PREVIOUS STRESS PERIOD.


 STRESS PERIOD 971 IS TRANSIENT


 REUSING WELS FROM LAST STRESS PERIOD

 REUSING DRNS FROM LAST STRESS PERIOD

 REUSING RCHS FROM LAST STRESS PERIOD


  VOLUME BUDGET FOR ENTIRE MODEL AT END OF TIME STEP    1, STRESS PERIOD 971
  ---------------------------------------------------------------------------------------------------

     CUMULATIVE VOLUME      L**3       RATES FOR THIS TIME STEP      L**3/T          PACKAGE NAME    
     ------------------                 ------------------------                     ----------------

           IN:                                      IN:
           ---                                      ---
              STO-SS =           0.0000                STO-SS =           0.0000     STORAGE         
              STO-SY = 17985146355.0958                STO-SY =    32211011.2723     STORAGE         
                 WEL =           0.0000                   WEL =           0.0000     WEL_0           
                 DRN =           0.0000                   DRN =           0.0000     DRN_0           
                 RCH = 43457716758.2898                   RCH =    21977961.0759     RCH_0           

            TOTAL IN = 61442863113.3857              TOTAL IN =    54188972.3482

          OUT:                                     OUT:
          ----                                     ----
              STO-SS =           0.0000                STO-SS =           0.0000     STORAGE         
              STO-SY = 15711387998.0095                STO-SY =     5173042.7816     STORAGE         
                 WEL =  9617243436.7281                   WEL =    29280281.8898     WEL_0           
                 DRN = 36114218736.7670                   DRN =    19735655.0308     DRN_0           
                 RCH =           0.0000                   RCH =           0.0000     RCH_0           

           TOTAL OUT = 61442850171.5046             TOTAL OUT =    54188979.7022

            IN - OUT =       12941.8810              IN - OUT =          -7.3540

 PERCENT DISCREPANCY =           0.00     PERCENT DISCREPANCY =          -0.00




         TIME SUMMARY AT END OF TIME STEP    1 IN STRESS PERIOD  971
                          TIME STEP LENGTH =    1.00000    
                        STRESS PERIOD TIME =    1.00000    
                     TOTAL SIMULATION TIME =    971.000    

end timestep


start timestep kper="972" kstp="1" mode="normal"


 OUTPUT CONTROL FOR STRESS PERIOD 972 IS REPEATED USING SETTINGS FROM A PREVIOUS STRESS PERIOD.


 STRESS PERIOD 972 IS TRANSIENT


 REUSING WELS FROM LAST STRESS PERIOD

 REUSING DRNS FROM LAST STRESS PERIOD

 REUSING RCHS FROM LAST STRESS PERIOD


  VOLUME BUDGET FOR ENTIRE MODEL AT END OF TIME STEP    1, STRESS PERIOD 972
  ---------------------------------------------------------------------------------------------------

     CUMULATIVE VOLUME      L**3       RATES FOR THIS TIME STEP      L**3/T          PACKAGE NAME    
     ------------------                 ------------------------                     ----------------

           IN:                                      IN:
           ---                                      ---
              STO-SS =           0.0000                STO-SS =           0.0000     STORAGE         
              STO-SY = 18019119430.3691                STO-SY =    33973075.2733     STORAGE         
                 WEL =           0.0000                   WEL =           0.0000     WEL_0           
                 DRN =           0.0000                   DRN =           0.0000     DRN_0           
                 RCH = 43481667051.8868                   RCH =    23950293.5970     RCH_0           

            TOTAL IN = 61500786482.2559              TOTAL IN =    57923368.8703

          OUT:                                     OUT:
          ----                                     ----
              STO-SS =           0.0000                STO-SS =           0.0000     STORAGE         
              STO-SY = 15717539496.3650                STO-SY =     6151498.3555     STORAGE         
                 WEL =  9650934940.8073                   WEL =    33691504.0792     WEL_0           
                 DRN = 36132299102.9523                   DRN =    18080366.1853     DRN_0           
                 RCH =           0.0000                   RCH =           0.0000     RCH_0           

           TOTAL OUT = 61500773540.1246             TOTAL OUT =    57923368.6200

            IN - OUT =       12942.1313              IN - OUT =           0.2503

 PERCENT DISCREPANCY =           0.00     PERCENT DISCREPANCY =           0.00




         TIME SUMMARY AT END OF TIME STEP    1 IN STRESS PERIOD  972
                          TIME STEP LENGTH =    1.00000    
                        STRESS PERIOD TIME =    1.00000    
                     TOTAL SIMULATION TIME =    972.000    

end timestep


start timestep kper="973" kstp="1" mode="normal"


 OUTPUT CONTROL FOR STRESS PERIOD 973 IS REPEATED USING SETTINGS FROM A PREVIOUS STRESS PERIOD.


 STRESS PERIOD 973 IS TRANSIENT


 REUSING WELS FROM LAST STRESS PERIOD

 REUSING DRNS FROM LAST STRESS PERIOD

 REUSING RCHS FROM LAST STRESS PERIOD


  VOLUME BUDGET FOR ENTIRE MODEL AT END OF TIME STEP    1, STRESS PERIOD 973
  ---------------------------------------------------------------------------------------------------

     CUMULATIVE VOLUME      L**3       RATES FOR THIS TIME STEP      L**3/T          PACKAGE NAME    
     ------------------                 ------------------------                     ----------------

           IN:                                      IN:
           ---                                      ---
              STO-SS =           0.0000                STO-SS =           0.0000     STORAGE         
              STO-SY = 18037731742.8003                STO-SY =    18612312.4313     STORAGE         
                 WEL =           0.0000                   WEL =           0.0000     WEL_0           
                 DRN =           0.0000                   DRN =           0.0000     DRN_0           
                 RCH = 43490926100.1192                   RCH =     9259048.2323     RCH_0           

            TOTAL IN = 61528657842.9195              TOTAL IN =    27871360.6636

          OUT:                                     OUT:
          ----                                     ----
              STO-SS =           0.0000                STO-SS =           0.0000     STORAGE         
              STO-SY = 15720579579.5909                STO-SY =     3040083.2259     STORAGE         
                 WEL =  9658001909.3035                   WEL =     7066968.4962     WEL_0           
                 DRN = 36150063405.3632                   DRN =    17764302.4109     DRN_0           
                 RCH =           0.0000                   RCH =           0.0000     RCH_0           

           TOTAL OUT = 61528644894.2576             TOTAL OUT =    27871354.1330

            IN - OUT =       12948.6619              IN - OUT =           6.5306

 PERCENT DISCREPANCY =           0.00     PERCENT DISCREPANCY =           0.00




         TIME SUMMARY AT END OF TIME STEP    1 IN STRESS PERIOD  973
                          TIME STEP LENGTH =    1.00000    
                        STRESS PERIOD TIME =    1.00000    
                     TOTAL SIMULATION TIME =    973.000    

end timestep


start timestep kper="974" kstp="1" mode="normal"


 OUTPUT CONTROL FOR STRESS PERIOD 974 IS REPEATED USING SETTINGS FROM A PREVIOUS STRESS PERIOD.


 STRESS PERIOD 974 IS TRANSIENT


 REUSING WELS FROM LAST STRESS PERIOD

 REUSING DRNS FROM LAST STRESS PERIOD

 REUSING RCHS FROM LAST STRESS PERIOD


  VOLUME BUDGET FOR ENTIRE MODEL AT END OF TIME STEP    1, STRESS PERIOD 974
  ---------------------------------------------------------------------------------------------------

     CUMULATIVE VOLUME      L**3       RATES FOR THIS TIME STEP      L**3/T          PACKAGE NAME    
     ------------------                 ------------------------                     ----------------

           IN:                                      IN:
           ---                                      ---
              STO-SS =           0.0000                STO-SS =           0.0000     STORAGE         
              STO-SY = 18055349989.5095                STO-SY =    17618246.7092     STORAGE         
                 WEL =           0.0000                   WEL =           0.0000     WEL_0           
                 DRN =           0.0000                   DRN =           0.0000     DRN_0           
                 RCH = 43497273175.1433                   RCH =     6347075.0241     RCH_0           

            TOTAL IN = 61552623164.6527              TOTAL IN =    23965321.7332

          OUT:                                     OUT:
          ----                                     ----
              STO-SS =           0.0000                STO-SS =           0.0000     STORAGE         
              STO-SY = 15723037665.2114                STO-SY =     2458085.6205     STORAGE         
                 WEL =  9663056436.8600                   WEL =     5054527.5565     WEL_0           
                 DRN = 36166516115.3572                   DRN =    16452709.9940     DRN_0           
                 RCH =           0.0000                   RCH =           0.0000     RCH_0           

           TOTAL OUT = 61552610217.4287             TOTAL OUT =    23965323.1710

            IN - OUT =       12947.2241              IN - OUT =          -1.4378

 PERCENT DISCREPANCY =           0.00     PERCENT DISCREPANCY =          -0.00




         TIME SUMMARY AT END OF TIME STEP    1 IN STRESS PERIOD  974
                          TIME STEP LENGTH =    1.00000    
                        STRESS PERIOD TIME =    1.00000    
                     TOTAL SIMULATION TIME =    974.000    

end timestep


start timestep kper="975" kstp="1" mode="normal"


 OUTPUT CONTROL FOR STRESS PERIOD 975 IS REPEATED USING SETTINGS FROM A PREVIOUS STRESS PERIOD.


 STRESS PERIOD 975 IS TRANSIENT


 REUSING WELS FROM LAST STRESS PERIOD

 REUSING DRNS FROM LAST STRESS PERIOD

 REUSING RCHS FROM LAST STRESS PERIOD


  VOLUME BUDGET FOR ENTIRE MODEL AT END OF TIME STEP    1, STRESS PERIOD 975
  ---------------------------------------------------------------------------------------------------

     CUMULATIVE VOLUME      L**3       RATES FOR THIS TIME STEP      L**3/T          PACKAGE NAME    
     ------------------                 ------------------------                     ----------------

           IN:                                      IN:
           ---                                      ---
              STO-SS =           0.0000                STO-SS =           0.0000     STORAGE         
              STO-SY = 18072263739.6289                STO-SY =    16913750.1194     STORAGE         
                 WEL =           0.0000                   WEL =           0.0000     WEL_0           
                 DRN =           0.0000                   DRN =           0.0000     DRN_0           
                 RCH = 43504955067.2280                   RCH =     7681892.0847     RCH_0           

            TOTAL IN = 61577218806.8568              TOTAL IN =    24595642.2041

          OUT:                                     OUT:
          ----                                     ----
              STO-SS =           0.0000                STO-SS =           0.0000     STORAGE         
              STO-SY = 15725675284.6968                STO-SY =     2637619.4854     STORAGE         
                 WEL =  9667403907.0230                   WEL =     4347470.1630     WEL_0           
                 DRN = 36184126667.9499                   DRN =    17610552.5926     DRN_0           
                 RCH =           0.0000                   RCH =           0.0000     RCH_0           

           TOTAL OUT = 61577205859.6697             TOTAL OUT =    24595642.2410

            IN - OUT =       12947.1872              IN - OUT =      -3.6897E-02

 PERCENT DISCREPANCY =           0.00     PERCENT DISCREPANCY =          -0.00




         TIME SUMMARY AT END OF TIME STEP    1 IN STRESS PERIOD  975
                          TIME STEP LENGTH =    1.00000    
                        STRESS PERIOD TIME =    1.00000    
                     TOTAL SIMULATION TIME =    975.000    

end timestep


start timestep kper="976" kstp="1" mode="normal"


 OUTPUT CONTROL FOR STRESS PERIOD 976 IS REPEATED USING SETTINGS FROM A PREVIOUS STRESS PERIOD.


 STRESS PERIOD 976 IS TRANSIENT


 REUSING WELS FROM LAST STRESS PERIOD

 REUSING DRNS FROM LAST STRESS PERIOD

 REUSING RCHS FROM LAST STRESS PERIOD


  VOLUME BUDGET FOR ENTIRE MODEL AT END OF TIME STEP    1, STRESS PERIOD 976
  ---------------------------------------------------------------------------------------------------

     CUMULATIVE VOLUME      L**3       RATES FOR THIS TIME STEP      L**3/T          PACKAGE NAME    
     ------------------                 ------------------------                     ----------------

           IN:                                      IN:
           ---                                      ---
              STO-SS =           0.0000                STO-SS =           0.0000     STORAGE         
              STO-SY = 18094150718.8079                STO-SY =    21886979.1790     STORAGE         
                 WEL =           0.0000                   WEL =           0.0000     WEL_0           
                 DRN =           0.0000                   DRN =           0.0000     DRN_0           
                 RCH = 43518337659.1121                   RCH =    13382591.8841     RCH_0           

            TOTAL IN = 61612488377.9199              TOTAL IN =    35269571.0631

          OUT:                                     OUT:
          ----                                     ----
              STO-SS =           0.0000                STO-SS =           0.0000     STORAGE         
              STO-SY = 15729183867.6641                STO-SY =     3508582.9673     STORAGE         
                 WEL =  9682173666.8080                   WEL =    14769759.7850     WEL_0           
                 DRN = 36201117887.5469                   DRN =    16991219.5970     DRN_0           
                 RCH =           0.0000                   RCH =           0.0000     RCH_0           

           TOTAL OUT = 61612475422.0189             TOTAL OUT =    35269562.3493

            IN - OUT =       12955.9010              IN - OUT =           8.7138

 PERCENT DISCREPANCY =           0.00     PERCENT DISCREPANCY =           0.00




         TIME SUMMARY AT END OF TIME STEP    1 IN STRESS PERIOD  976
                          TIME STEP LENGTH =    1.00000    
                        STRESS PERIOD TIME =    1.00000    
                     TOTAL SIMULATION TIME =    976.000    

end timestep


start timestep kper="977" kstp="1" mode="normal"


 OUTPUT CONTROL FOR STRESS PERIOD 977 IS REPEATED USING SETTINGS FROM A PREVIOUS STRESS PERIOD.


 STRESS PERIOD 977 IS TRANSIENT


 REUSING WELS FROM LAST STRESS PERIOD

 REUSING DRNS FROM LAST STRESS PERIOD

 REUSING RCHS FROM LAST STRESS PERIOD


  VOLUME BUDGET FOR ENTIRE MODEL AT END OF TIME STEP    1, STRESS PERIOD 977
  ---------------------------------------------------------------------------------------------------

     CUMULATIVE VOLUME      L**3       RATES FOR THIS TIME STEP      L**3/T          PACKAGE NAME    
     ------------------                 ------------------------                     ----------------

           IN:                                      IN:
           ---                                      ---
              STO-SS =           0.0000                STO-SS =           0.0000     STORAGE         
              STO-SY = 18129078512.3014                STO-SY =    34927793.4935     STORAGE         
                 WEL =           0.0000                   WEL =           0.0000     WEL_0           
                 DRN =           0.0000                   DRN =           0.0000     DRN_0           
                 RCH = 43546366433.2734                   RCH =    28028774.1613     RCH_0           

            TOTAL IN = 61675444945.5748              TOTAL IN =    62956567.6548

          OUT:                                     OUT:
          ----                                     ----
              STO-SS =           0.0000                STO-SS =           0.0000     STORAGE         
              STO-SY = 15736763485.9290                STO-SY =     7579618.2649     STORAGE         
                 WEL =  9718110744.6834                   WEL =    35937077.8754     WEL_0           
                 DRN = 36220557753.4113                   DRN =    19439865.8645     DRN_0           
                 RCH =           0.0000                   RCH =           0.0000     RCH_0           

           TOTAL OUT = 61675431984.0236             TOTAL OUT =    62956562.0047

            IN - OUT =       12961.5512              IN - OUT =           5.6502

 PERCENT DISCREPANCY =           0.00     PERCENT DISCREPANCY =           0.00




         TIME SUMMARY AT END OF TIME STEP    1 IN STRESS PERIOD  977
                          TIME STEP LENGTH =    1.00000    
                        STRESS PERIOD TIME =    1.00000    
                     TOTAL SIMULATION TIME =    977.000    

end timestep


start timestep kper="978" kstp="1" mode="normal"


 OUTPUT CONTROL FOR STRESS PERIOD 978 IS REPEATED USING SETTINGS FROM A PREVIOUS STRESS PERIOD.


 STRESS PERIOD 978 IS TRANSIENT


 REUSING WELS FROM LAST STRESS PERIOD

 REUSING DRNS FROM LAST STRESS PERIOD

 REUSING RCHS FROM LAST STRESS PERIOD


  VOLUME BUDGET FOR ENTIRE MODEL AT END OF TIME STEP    1, STRESS PERIOD 978
  ---------------------------------------------------------------------------------------------------

     CUMULATIVE VOLUME      L**3       RATES FOR THIS TIME STEP      L**3/T          PACKAGE NAME    
     ------------------                 ------------------------                     ----------------

           IN:                                      IN:
           ---                                      ---
              STO-SS =           0.0000                STO-SS =           0.0000     STORAGE         
              STO-SY = 18153398377.4424                STO-SY =    24319865.1410     STORAGE         
                 WEL =           0.0000                   WEL =           0.0000     WEL_0           
                 DRN =           0.0000                   DRN =           0.0000     DRN_0           
                 RCH = 43564132558.9512                   RCH =    17766125.6778     RCH_0           

            TOTAL IN = 61717530936.3936              TOTAL IN =    42085990.8188

          OUT:                                     OUT:
          ----                                     ----
              STO-SS =           0.0000                STO-SS =           0.0000     STORAGE         
              STO-SY = 15741298148.5792                STO-SY =     4534662.6503     STORAGE         
                 WEL =  9738602735.2164                   WEL =    20491990.5330     WEL_0           
                 DRN = 36237617082.0358                   DRN =    17059328.6245     DRN_0           
                 RCH =           0.0000                   RCH =           0.0000     RCH_0           

           TOTAL OUT = 61717517965.8314             TOTAL OUT =    42085981.8078

            IN - OUT =       12970.5621              IN - OUT =           9.0110

 PERCENT DISCREPANCY =           0.00     PERCENT DISCREPANCY =           0.00




         TIME SUMMARY AT END OF TIME STEP    1 IN STRESS PERIOD  978
                          TIME STEP LENGTH =    1.00000    
                        STRESS PERIOD TIME =    1.00000    
                     TOTAL SIMULATION TIME =    978.000    

end timestep


start timestep kper="979" kstp="1" mode="normal"


 OUTPUT CONTROL FOR STRESS PERIOD 979 IS REPEATED USING SETTINGS FROM A PREVIOUS STRESS PERIOD.


 STRESS PERIOD 979 IS TRANSIENT


 REUSING WELS FROM LAST STRESS PERIOD

 REUSING DRNS FROM LAST STRESS PERIOD

 REUSING RCHS FROM LAST STRESS PERIOD


  VOLUME BUDGET FOR ENTIRE MODEL AT END OF TIME STEP    1, STRESS PERIOD 979
  ---------------------------------------------------------------------------------------------------

     CUMULATIVE VOLUME      L**3       RATES FOR THIS TIME STEP      L**3/T          PACKAGE NAME    
     ------------------                 ------------------------                     ----------------

           IN:                                      IN:
           ---                                      ---
              STO-SS =           0.0000                STO-SS =           0.0000     STORAGE         
              STO-SY = 18169364107.4794                STO-SY =    15965730.0370     STORAGE         
                 WEL =           0.0000                   WEL =           0.0000     WEL_0           
                 DRN =           0.0000                   DRN =           0.0000     DRN_0           
                 RCH = 43573133594.8548                   RCH =     9001035.9035     RCH_0           

            TOTAL IN = 61742497702.3341              TOTAL IN =    24966765.9405

          OUT:                                     OUT:
          ----                                     ----
              STO-SS =           0.0000                STO-SS =           0.0000     STORAGE         
              STO-SY = 15744504046.7578                STO-SY =     3205898.1786     STORAGE         
                 WEL =  9743290763.3886                   WEL =     4688028.1722     WEL_0           
                 DRN = 36254689944.5115                   DRN =    17072862.4757     DRN_0           
                 RCH =           0.0000                   RCH =           0.0000     RCH_0           

           TOTAL OUT = 61742484754.6579             TOTAL OUT =    24966788.8264

            IN - OUT =       12947.6762              IN - OUT =         -22.8859

 PERCENT DISCREPANCY =           0.00     PERCENT DISCREPANCY =          -0.00




         TIME SUMMARY AT END OF TIME STEP    1 IN STRESS PERIOD  979
                          TIME STEP LENGTH =    1.00000    
                        STRESS PERIOD TIME =    1.00000    
                     TOTAL SIMULATION TIME =    979.000    

end timestep


start timestep kper="980" kstp="1" mode="normal"


 OUTPUT CONTROL FOR STRESS PERIOD 980 IS REPEATED USING SETTINGS FROM A PREVIOUS STRESS PERIOD.


 STRESS PERIOD 980 IS TRANSIENT


 REUSING WELS FROM LAST STRESS PERIOD

 REUSING DRNS FROM LAST STRESS PERIOD

 REUSING RCHS FROM LAST STRESS PERIOD


  VOLUME BUDGET FOR ENTIRE MODEL AT END OF TIME STEP    1, STRESS PERIOD 980
  ---------------------------------------------------------------------------------------------------

     CUMULATIVE VOLUME      L**3       RATES FOR THIS TIME STEP      L**3/T          PACKAGE NAME    
     ------------------                 ------------------------                     ----------------

           IN:                                      IN:
           ---                                      ---
              STO-SS =           0.0000                STO-SS =           0.0000     STORAGE         
              STO-SY = 18185374538.8628                STO-SY =    16010431.3835     STORAGE         
                 WEL =           0.0000                   WEL =           0.0000     WEL_0           
                 DRN =           0.0000                   DRN =           0.0000     DRN_0           
                 RCH = 43581632858.8536                   RCH =     8499263.9988     RCH_0           

            TOTAL IN = 61767007397.7164              TOTAL IN =    24509695.3823

          OUT:                                     OUT:
          ----                                     ----
              STO-SS =           0.0000                STO-SS =           0.0000     STORAGE         
              STO-SY = 15747517874.1274                STO-SY =     3013827.3696     STORAGE         
                 WEL =  9748502153.0639                   WEL =     5211389.6754     WEL_0           
                 DRN = 36270974393.8974                   DRN =    16284449.3859     DRN_0           
                 RCH =           0.0000                   RCH =           0.0000     RCH_0           

           TOTAL OUT = 61766994421.0888             TOTAL OUT =    24509666.4309

            IN - OUT =       12976.6276              IN - OUT =          28.9514

 PERCENT DISCREPANCY =           0.00     PERCENT DISCREPANCY =           0.00




         TIME SUMMARY AT END OF TIME STEP    1 IN STRESS PERIOD  980
                          TIME STEP LENGTH =    1.00000    
                        STRESS PERIOD TIME =    1.00000    
                     TOTAL SIMULATION TIME =    980.000    

end timestep


start timestep kper="981" kstp="1" mode="normal"


 OUTPUT CONTROL FOR STRESS PERIOD 981 IS REPEATED USING SETTINGS FROM A PREVIOUS STRESS PERIOD.


 STRESS PERIOD 981 IS TRANSIENT


 REUSING WELS FROM LAST STRESS PERIOD

 REUSING DRNS FROM LAST STRESS PERIOD

 REUSING RCHS FROM LAST STRESS PERIOD


  VOLUME BUDGET FOR ENTIRE MODEL AT END OF TIME STEP    1, STRESS PERIOD 981
  ---------------------------------------------------------------------------------------------------

     CUMULATIVE VOLUME      L**3       RATES FOR THIS TIME STEP      L**3/T          PACKAGE NAME    
     ------------------                 ------------------------                     ----------------

           IN:                                      IN:
           ---                                      ---
              STO-SS =           0.0000                STO-SS =           0.0000     STORAGE         
              STO-SY = 18203443545.9090                STO-SY =    18069007.0461     STORAGE         
                 WEL =           0.0000                   WEL =           0.0000     WEL_0           
                 DRN =           0.0000                   DRN =           0.0000     DRN_0           
                 RCH = 43591637113.9074                   RCH =    10004255.0538     RCH_0           

            TOTAL IN = 61795080659.8163              TOTAL IN =    28073262.0999

          OUT:                                     OUT:
          ----                                     ----
              STO-SS =           0.0000                STO-SS =           0.0000     STORAGE         
              STO-SY = 15750333072.4215                STO-SY =     2815198.2941     STORAGE         
                 WEL =  9756696374.4477                   WEL =     8194221.3838     WEL_0           
                 DRN = 36288038236.8226                   DRN =    17063842.9251     DRN_0           
                 RCH =           0.0000                   RCH =           0.0000     RCH_0           

           TOTAL OUT = 61795067683.6918             TOTAL OUT =    28073262.6030

            IN - OUT =       12976.1245              IN - OUT =          -0.5031

 PERCENT DISCREPANCY =           0.00     PERCENT DISCREPANCY =          -0.00




         TIME SUMMARY AT END OF TIME STEP    1 IN STRESS PERIOD  981
                          TIME STEP LENGTH =    1.00000    
                        STRESS PERIOD TIME =    1.00000    
                     TOTAL SIMULATION TIME =    981.000    

end timestep


start timestep kper="982" kstp="1" mode="normal"


 OUTPUT CONTROL FOR STRESS PERIOD 982 IS REPEATED USING SETTINGS FROM A PREVIOUS STRESS PERIOD.


 STRESS PERIOD 982 IS TRANSIENT


 REUSING WELS FROM LAST STRESS PERIOD

 REUSING DRNS FROM LAST STRESS PERIOD

 REUSING RCHS FROM LAST STRESS PERIOD


  VOLUME BUDGET FOR ENTIRE MODEL AT END OF TIME STEP    1, STRESS PERIOD 982
  ---------------------------------------------------------------------------------------------------

     CUMULATIVE VOLUME      L**3       RATES FOR THIS TIME STEP      L**3/T          PACKAGE NAME    
     ------------------                 ------------------------                     ----------------

           IN:                                      IN:
           ---                                      ---
              STO-SS =           0.0000                STO-SS =           0.0000     STORAGE         
              STO-SY = 18245969146.1825                STO-SY =    42525600.2735     STORAGE         
                 WEL =           0.0000                   WEL =           0.0000     WEL_0           
                 DRN =           0.0000                   DRN =           0.0000     DRN_0           
                 RCH = 43621598437.2899                   RCH =    29961323.3826     RCH_0           

            TOTAL IN = 61867567583.4724              TOTAL IN =    72486923.6561

          OUT:                                     OUT:
          ----                                     ----
              STO-SS =           0.0000                STO-SS =           0.0000     STORAGE         
              STO-SY = 15757319472.2020                STO-SY =     6986399.7805     STORAGE         
                 WEL =  9804513369.3738                   WEL =    47816994.9261     WEL_0           
                 DRN = 36305721766.7537                   DRN =    17683529.9311     DRN_0           
                 RCH =           0.0000                   RCH =           0.0000     RCH_0           

           TOTAL OUT = 61867554608.3295             TOTAL OUT =    72486924.6377

            IN - OUT =       12975.1429              IN - OUT =          -0.9816

 PERCENT DISCREPANCY =           0.00     PERCENT DISCREPANCY =          -0.00




         TIME SUMMARY AT END OF TIME STEP    1 IN STRESS PERIOD  982
                          TIME STEP LENGTH =    1.00000    
                        STRESS PERIOD TIME =    1.00000    
                     TOTAL SIMULATION TIME =    982.000    

end timestep


start timestep kper="983" kstp="1" mode="normal"


 OUTPUT CONTROL FOR STRESS PERIOD 983 IS REPEATED USING SETTINGS FROM A PREVIOUS STRESS PERIOD.


 STRESS PERIOD 983 IS TRANSIENT


 REUSING WELS FROM LAST STRESS PERIOD

 REUSING DRNS FROM LAST STRESS PERIOD

 REUSING RCHS FROM LAST STRESS PERIOD


  VOLUME BUDGET FOR ENTIRE MODEL AT END OF TIME STEP    1, STRESS PERIOD 983
  ---------------------------------------------------------------------------------------------------

     CUMULATIVE VOLUME      L**3       RATES FOR THIS TIME STEP      L**3/T          PACKAGE NAME    
     ------------------                 ------------------------                     ----------------

           IN:                                      IN:
           ---                                      ---
              STO-SS =           0.0000                STO-SS =           0.0000     STORAGE         
              STO-SY = 18263924005.3402                STO-SY =    17954859.1577     STORAGE         
                 WEL =           0.0000                   WEL =           0.0000     WEL_0           
                 DRN =           0.0000                   DRN =           0.0000     DRN_0           
                 RCH = 43633214102.8983                   RCH =    11615665.6083     RCH_0           

            TOTAL IN = 61897138108.2385              TOTAL IN =    29570524.7661

          OUT:                                     OUT:
          ----                                     ----
              STO-SS =           0.0000                STO-SS =           0.0000     STORAGE         
              STO-SY = 15760738830.1557                STO-SY =     3419357.9536     STORAGE         
                 WEL =  9813905591.9978                   WEL =     9392222.6240     WEL_0           
                 DRN = 36322480614.4470                   DRN =    16758847.6933     DRN_0           
                 RCH =           0.0000                   RCH =           0.0000     RCH_0           

           TOTAL OUT = 61897125036.6005             TOTAL OUT =    29570428.2709

            IN - OUT =       13071.6380              IN - OUT =          96.4951

 PERCENT DISCREPANCY =           0.00     PERCENT DISCREPANCY =           0.00




         TIME SUMMARY AT END OF TIME STEP    1 IN STRESS PERIOD  983
                          TIME STEP LENGTH =    1.00000    
                        STRESS PERIOD TIME =    1.00000    
                     TOTAL SIMULATION TIME =    983.000    

end timestep


start timestep kper="984" kstp="1" mode="normal"


 OUTPUT CONTROL FOR STRESS PERIOD 984 IS REPEATED USING SETTINGS FROM A PREVIOUS STRESS PERIOD.


 STRESS PERIOD 984 IS TRANSIENT


 REUSING WELS FROM LAST STRESS PERIOD

 REUSING DRNS FROM LAST STRESS PERIOD

 REUSING RCHS FROM LAST STRESS PERIOD


  VOLUME BUDGET FOR ENTIRE MODEL AT END OF TIME STEP    1, STRESS PERIOD 984
  ---------------------------------------------------------------------------------------------------

     CUMULATIVE VOLUME      L**3       RATES FOR THIS TIME STEP      L**3/T          PACKAGE NAME    
     ------------------                 ------------------------                     ----------------

           IN:                                      IN:
           ---                                      ---
              STO-SS =           0.0000                STO-SS =           0.0000     STORAGE         
              STO-SY = 18295091343.8062                STO-SY =    31167338.4660     STORAGE         
                 WEL =           0.0000                   WEL =           0.0000     WEL_0           
                 DRN =           0.0000                   DRN =           0.0000     DRN_0           
                 RCH = 43656382573.9242                   RCH =    23168471.0259     RCH_0           

            TOTAL IN = 61951473917.7304              TOTAL IN =    54335809.4919

          OUT:                                     OUT:
          ----                                     ----
              STO-SS =           0.0000                STO-SS =           0.0000     STORAGE         
              STO-SY = 15765263160.3340                STO-SY =     4524330.1783     STORAGE         
                 WEL =  9845606599.7617                   WEL =    31701007.7639     WEL_0           
                 DRN = 36340591052.8845                   DRN =    18110438.4375     DRN_0           
                 RCH =           0.0000                   RCH =           0.0000     RCH_0           

           TOTAL OUT = 61951460812.9802             TOTAL OUT =    54335776.3797

            IN - OUT =       13104.7502              IN - OUT =          33.1122

 PERCENT DISCREPANCY =           0.00     PERCENT DISCREPANCY =           0.00




         TIME SUMMARY AT END OF TIME STEP    1 IN STRESS PERIOD  984
                          TIME STEP LENGTH =    1.00000    
                        STRESS PERIOD TIME =    1.00000    
                     TOTAL SIMULATION TIME =    984.000    

end timestep


start timestep kper="985" kstp="1" mode="normal"


 OUTPUT CONTROL FOR STRESS PERIOD 985 IS REPEATED USING SETTINGS FROM A PREVIOUS STRESS PERIOD.


 STRESS PERIOD 985 IS TRANSIENT


 REUSING WELS FROM LAST STRESS PERIOD

 REUSING DRNS FROM LAST STRESS PERIOD

 REUSING RCHS FROM LAST STRESS PERIOD


  VOLUME BUDGET FOR ENTIRE MODEL AT END OF TIME STEP    1, STRESS PERIOD 985
  ---------------------------------------------------------------------------------------------------

     CUMULATIVE VOLUME      L**3       RATES FOR THIS TIME STEP      L**3/T          PACKAGE NAME    
     ------------------                 ------------------------                     ----------------

           IN:                                      IN:
           ---                                      ---
              STO-SS =           0.0000                STO-SS =           0.0000     STORAGE         
              STO-SY = 18323693213.2704                STO-SY =    28601869.4642     STORAGE         
                 WEL =           0.0000                   WEL =           0.0000     WEL_0           
                 DRN =           0.0000                   DRN =           0.0000     DRN_0           
                 RCH = 43676786728.1063                   RCH =    20404154.1821     RCH_0           

            TOTAL IN = 62000479941.3768              TOTAL IN =    49006023.6463

          OUT:                                     OUT:
          ----                                     ----
              STO-SS =           0.0000                STO-SS =           0.0000     STORAGE         
              STO-SY = 15769617972.6201                STO-SY =     4354812.2861     STORAGE         
                 WEL =  9873099755.7319                   WEL =    27493155.9702     WEL_0           
                 DRN = 36357749082.2991                   DRN =    17158029.4146     DRN_0           
                 RCH =           0.0000                   RCH =           0.0000     RCH_0           

           TOTAL OUT = 62000466810.6511             TOTAL OUT =    49005997.6710

            IN - OUT =       13130.7256              IN - OUT =          25.9754

 PERCENT DISCREPANCY =           0.00     PERCENT DISCREPANCY =           0.00




         TIME SUMMARY AT END OF TIME STEP    1 IN STRESS PERIOD  985
                          TIME STEP LENGTH =    1.00000    
                        STRESS PERIOD TIME =    1.00000    
                     TOTAL SIMULATION TIME =    985.000    

end timestep


start timestep kper="986" kstp="1" mode="normal"


 OUTPUT CONTROL FOR STRESS PERIOD 986 IS REPEATED USING SETTINGS FROM A PREVIOUS STRESS PERIOD.


 STRESS PERIOD 986 IS TRANSIENT


 REUSING WELS FROM LAST STRESS PERIOD

 REUSING DRNS FROM LAST STRESS PERIOD

 REUSING RCHS FROM LAST STRESS PERIOD


  VOLUME BUDGET FOR ENTIRE MODEL AT END OF TIME STEP    1, STRESS PERIOD 986
  ---------------------------------------------------------------------------------------------------

     CUMULATIVE VOLUME      L**3       RATES FOR THIS TIME STEP      L**3/T          PACKAGE NAME    
     ------------------                 ------------------------                     ----------------

           IN:                                      IN:
           ---                                      ---
              STO-SS =           0.0000                STO-SS =           0.0000     STORAGE         
              STO-SY = 18347552706.5778                STO-SY =    23859493.3073     STORAGE         
                 WEL =           0.0000                   WEL =           0.0000     WEL_0           
                 DRN =           0.0000                   DRN =           0.0000     DRN_0           
                 RCH = 43697923717.9706                   RCH =    21136989.8643     RCH_0           

            TOTAL IN = 62045476424.5484              TOTAL IN =    44996483.1717

          OUT:                                     OUT:
          ----                                     ----
              STO-SS =           0.0000                STO-SS =           0.0000     STORAGE         
              STO-SY = 15774894350.4834                STO-SY =     5276377.8633     STORAGE         
                 WEL =  9894796695.1908                   WEL =    21696939.4589     WEL_0           
                 DRN = 36375772216.4552                   DRN =    18023134.1561     DRN_0           
                 RCH =           0.0000                   RCH =           0.0000     RCH_0           

           TOTAL OUT = 62045463262.1294             TOTAL OUT =    44996451.4783

            IN - OUT =       13162.4190              IN - OUT =          31.6933

 PERCENT DISCREPANCY =           0.00     PERCENT DISCREPANCY =           0.00




         TIME SUMMARY AT END OF TIME STEP    1 IN STRESS PERIOD  986
                          TIME STEP LENGTH =    1.00000    
                        STRESS PERIOD TIME =    1.00000    
                     TOTAL SIMULATION TIME =    986.000    

end timestep


start timestep kper="987" kstp="1" mode="normal"


 OUTPUT CONTROL FOR STRESS PERIOD 987 IS REPEATED USING SETTINGS FROM A PREVIOUS STRESS PERIOD.


 STRESS PERIOD 987 IS TRANSIENT


 REUSING WELS FROM LAST STRESS PERIOD

 REUSING DRNS FROM LAST STRESS PERIOD

 REUSING RCHS FROM LAST STRESS PERIOD


  VOLUME BUDGET FOR ENTIRE MODEL AT END OF TIME STEP    1, STRESS PERIOD 987
  ---------------------------------------------------------------------------------------------------

     CUMULATIVE VOLUME      L**3       RATES FOR THIS TIME STEP      L**3/T          PACKAGE NAME    
     ------------------                 ------------------------                     ----------------

           IN:                                      IN:
           ---                                      ---
              STO-SS =           0.0000                STO-SS =           0.0000     STORAGE         
              STO-SY = 18363166165.5402                STO-SY =    15613458.9625     STORAGE         
                 WEL =           0.0000                   WEL =           0.0000     WEL_0           
                 DRN =           0.0000                   DRN =           0.0000     DRN_0           
                 RCH = 43706982651.2970                   RCH =     9058933.3264     RCH_0           

            TOTAL IN = 62070148816.8372              TOTAL IN =    24672392.2888

          OUT:                                     OUT:
          ----                                     ----
              STO-SS =           0.0000                STO-SS =           0.0000     STORAGE         
              STO-SY = 15778070929.0024                STO-SY =     3176578.5189     STORAGE         
                 WEL =  9899808125.7232                   WEL =     5011430.5324     WEL_0           
                 DRN = 36392256588.0820                   DRN =    16484371.6268     DRN_0           
                 RCH =           0.0000                   RCH =           0.0000     RCH_0           

           TOTAL OUT = 62070135642.8075             TOTAL OUT =    24672380.6780

            IN - OUT =       13174.0297              IN - OUT =          11.6108

 PERCENT DISCREPANCY =           0.00     PERCENT DISCREPANCY =           0.00




         TIME SUMMARY AT END OF TIME STEP    1 IN STRESS PERIOD  987
                          TIME STEP LENGTH =    1.00000    
                        STRESS PERIOD TIME =    1.00000    
                     TOTAL SIMULATION TIME =    987.000    

end timestep


start timestep kper="988" kstp="1" mode="normal"


 OUTPUT CONTROL FOR STRESS PERIOD 988 IS REPEATED USING SETTINGS FROM A PREVIOUS STRESS PERIOD.


 STRESS PERIOD 988 IS TRANSIENT


 REUSING WELS FROM LAST STRESS PERIOD

 REUSING DRNS FROM LAST STRESS PERIOD

 REUSING RCHS FROM LAST STRESS PERIOD


  VOLUME BUDGET FOR ENTIRE MODEL AT END OF TIME STEP    1, STRESS PERIOD 988
  ---------------------------------------------------------------------------------------------------

     CUMULATIVE VOLUME      L**3       RATES FOR THIS TIME STEP      L**3/T          PACKAGE NAME    
     ------------------                 ------------------------                     ----------------

           IN:                                      IN:
           ---                                      ---
              STO-SS =           0.0000                STO-SS =           0.0000     STORAGE         
              STO-SY = 18390351363.5335                STO-SY =    27185197.9932     STORAGE         
                 WEL =           0.0000                   WEL =           0.0000     WEL_0           
                 DRN =           0.0000                   DRN =           0.0000     DRN_0           
                 RCH = 43728597313.8831                   RCH =    21614662.5861     RCH_0           

            TOTAL IN = 62118948677.4166              TOTAL IN =    48799860.5794

          OUT:                                     OUT:
          ----                                     ----
              STO-SS =           0.0000                STO-SS =           0.0000     STORAGE         
              STO-SY = 15783168897.7446                STO-SY =     5097968.7423     STORAGE         
                 WEL =  9926191864.2890                   WEL =    26383738.5658     WEL_0           
                 DRN = 36409574735.2975                   DRN =    17318147.2155     DRN_0           
                 RCH =           0.0000                   RCH =           0.0000     RCH_0           

           TOTAL OUT = 62118935497.3311             TOTAL OUT =    48799854.5236

            IN - OUT =       13180.0855              IN - OUT =           6.0557

 PERCENT DISCREPANCY =           0.00     PERCENT DISCREPANCY =           0.00




         TIME SUMMARY AT END OF TIME STEP    1 IN STRESS PERIOD  988
                          TIME STEP LENGTH =    1.00000    
                        STRESS PERIOD TIME =    1.00000    
                     TOTAL SIMULATION TIME =    988.000    

end timestep


start timestep kper="989" kstp="1" mode="normal"


 OUTPUT CONTROL FOR STRESS PERIOD 989 IS REPEATED USING SETTINGS FROM A PREVIOUS STRESS PERIOD.


 STRESS PERIOD 989 IS TRANSIENT


 REUSING WELS FROM LAST STRESS PERIOD

 REUSING DRNS FROM LAST STRESS PERIOD

 REUSING RCHS FROM LAST STRESS PERIOD


  VOLUME BUDGET FOR ENTIRE MODEL AT END OF TIME STEP    1, STRESS PERIOD 989
  ---------------------------------------------------------------------------------------------------

     CUMULATIVE VOLUME      L**3       RATES FOR THIS TIME STEP      L**3/T          PACKAGE NAME    
     ------------------                 ------------------------                     ----------------

           IN:                                      IN:
           ---                                      ---
              STO-SS =           0.0000                STO-SS =           0.0000     STORAGE         
              STO-SY = 18406183515.2959                STO-SY =    15832151.7624     STORAGE         
                 WEL =           0.0000                   WEL =           0.0000     WEL_0           
                 DRN =           0.0000                   DRN =           0.0000     DRN_0           
                 RCH = 43737544640.3424                   RCH =     8947326.4592     RCH_0           

            TOTAL IN = 62143728155.6382              TOTAL IN =    24779478.2216

          OUT:                                     OUT:
          ----                                     ----
              STO-SS =           0.0000                STO-SS =           0.0000     STORAGE         
              STO-SY = 15786536170.7768                STO-SY =     3367273.0321     STORAGE         
                 WEL =  9931081402.0535                   WEL =     4889537.7645     WEL_0           
                 DRN = 36426097374.9009                   DRN =    16522639.6034     DRN_0           
                 RCH =           0.0000                   RCH =           0.0000     RCH_0           

           TOTAL OUT = 62143714947.7312             TOTAL OUT =    24779450.4001

            IN - OUT =       13207.9071              IN - OUT =          27.8216

 PERCENT DISCREPANCY =           0.00     PERCENT DISCREPANCY =           0.00




         TIME SUMMARY AT END OF TIME STEP    1 IN STRESS PERIOD  989
                          TIME STEP LENGTH =    1.00000    
                        STRESS PERIOD TIME =    1.00000    
                     TOTAL SIMULATION TIME =    989.000    

end timestep


start timestep kper="990" kstp="1" mode="normal"


 OUTPUT CONTROL FOR STRESS PERIOD 990 IS REPEATED USING SETTINGS FROM A PREVIOUS STRESS PERIOD.


 STRESS PERIOD 990 IS TRANSIENT


 REUSING WELS FROM LAST STRESS PERIOD

 REUSING DRNS FROM LAST STRESS PERIOD

 REUSING RCHS FROM LAST STRESS PERIOD


  VOLUME BUDGET FOR ENTIRE MODEL AT END OF TIME STEP    1, STRESS PERIOD 990
  ---------------------------------------------------------------------------------------------------

     CUMULATIVE VOLUME      L**3       RATES FOR THIS TIME STEP      L**3/T          PACKAGE NAME    
     ------------------                 ------------------------                     ----------------

           IN:                                      IN:
           ---                                      ---
              STO-SS =           0.0000                STO-SS =           0.0000     STORAGE         
              STO-SY = 18435359540.2754                STO-SY =    29176024.9795     STORAGE         
                 WEL =           0.0000                   WEL =           0.0000     WEL_0           
                 DRN =           0.0000                   DRN =           0.0000     DRN_0           
                 RCH = 43757665438.0106                   RCH =    20120797.6682     RCH_0           

            TOTAL IN = 62193024978.2860              TOTAL IN =    49296822.6477

          OUT:                                     OUT:
          ----                                     ----
              STO-SS =           0.0000                STO-SS =           0.0000     STORAGE         
              STO-SY = 15790573562.1768                STO-SY =     4037391.4000     STORAGE         
                 WEL =  9959265113.5822                   WEL =    28183711.5287     WEL_0           
                 DRN = 36443173005.0489                   DRN =    17075630.1480     DRN_0           
                 RCH =           0.0000                   RCH =           0.0000     RCH_0           

           TOTAL OUT = 62193011680.8079             TOTAL OUT =    49296733.0767

            IN - OUT =       13297.4781              IN - OUT =          89.5711

 PERCENT DISCREPANCY =           0.00     PERCENT DISCREPANCY =           0.00




         TIME SUMMARY AT END OF TIME STEP    1 IN STRESS PERIOD  990
                          TIME STEP LENGTH =    1.00000    
                        STRESS PERIOD TIME =    1.00000    
                     TOTAL SIMULATION TIME =    990.000    

end timestep


start timestep kper="991" kstp="1" mode="normal"


 OUTPUT CONTROL FOR STRESS PERIOD 991 IS REPEATED USING SETTINGS FROM A PREVIOUS STRESS PERIOD.


 STRESS PERIOD 991 IS TRANSIENT


 REUSING WELS FROM LAST STRESS PERIOD

 REUSING DRNS FROM LAST STRESS PERIOD

 REUSING RCHS FROM LAST STRESS PERIOD


  VOLUME BUDGET FOR ENTIRE MODEL AT END OF TIME STEP    1, STRESS PERIOD 991
  ---------------------------------------------------------------------------------------------------

     CUMULATIVE VOLUME      L**3       RATES FOR THIS TIME STEP      L**3/T          PACKAGE NAME    
     ------------------                 ------------------------                     ----------------

           IN:                                      IN:
           ---                                      ---
              STO-SS =           0.0000                STO-SS =           0.0000     STORAGE         
              STO-SY = 18464243047.8621                STO-SY =    28883507.5867     STORAGE         
                 WEL =           0.0000                   WEL =           0.0000     WEL_0           
                 DRN =           0.0000                   DRN =           0.0000     DRN_0           
                 RCH = 43775413653.6637                   RCH =    17748215.6532     RCH_0           

            TOTAL IN = 62239656701.5258              TOTAL IN =    46631723.2399

          OUT:                                     OUT:
          ----                                     ----
              STO-SS =           0.0000                STO-SS =           0.0000     STORAGE         
              STO-SY = 15793849421.4537                STO-SY =     3275859.2770     STORAGE         
                 WEL =  9986335661.7252                   WEL =    27070548.1430     WEL_0           
                 DRN = 36459458310.1568                   DRN =    16285305.1079     DRN_0           
                 RCH =           0.0000                   RCH =           0.0000     RCH_0           

           TOTAL OUT = 62239643393.3358             TOTAL OUT =    46631712.5279

            IN - OUT =       13308.1901              IN - OUT =          10.7120

 PERCENT DISCREPANCY =           0.00     PERCENT DISCREPANCY =           0.00




         TIME SUMMARY AT END OF TIME STEP    1 IN STRESS PERIOD  991
                          TIME STEP LENGTH =    1.00000    
                        STRESS PERIOD TIME =    1.00000    
                     TOTAL SIMULATION TIME =    991.000    

end timestep


start timestep kper="992" kstp="1" mode="normal"


 OUTPUT CONTROL FOR STRESS PERIOD 992 IS REPEATED USING SETTINGS FROM A PREVIOUS STRESS PERIOD.


 STRESS PERIOD 992 IS TRANSIENT


 REUSING WELS FROM LAST STRESS PERIOD

 REUSING DRNS FROM LAST STRESS PERIOD

 REUSING RCHS FROM LAST STRESS PERIOD


  VOLUME BUDGET FOR ENTIRE MODEL AT END OF TIME STEP    1, STRESS PERIOD 992
  ---------------------------------------------------------------------------------------------------

     CUMULATIVE VOLUME      L**3       RATES FOR THIS TIME STEP      L**3/T          PACKAGE NAME    
     ------------------                 ------------------------                     ----------------

           IN:                                      IN:
           ---                                      ---
              STO-SS =           0.0000                STO-SS =           0.0000     STORAGE         
              STO-SY = 18479916001.8174                STO-SY =    15672953.9553     STORAGE         
                 WEL =           0.0000                   WEL =           0.0000     WEL_0           
                 DRN =           0.0000                   DRN =           0.0000     DRN_0           
                 RCH = 43783442512.1742                   RCH =     8028858.5104     RCH_0           

            TOTAL IN = 62263358513.9916              TOTAL IN =    23701812.4657

          OUT:                                     OUT:
          ----                                     ----
              STO-SS =           0.0000                STO-SS =           0.0000     STORAGE         
              STO-SY = 15797080699.1222                STO-SY =     3231277.6685     STORAGE         
                 WEL =  9992307872.2327                   WEL =     5972210.5075     WEL_0           
                 DRN = 36473956635.3465                   DRN =    14498325.1896     DRN_0           
                 RCH =           0.0000                   RCH =           0.0000     RCH_0           

           TOTAL OUT = 62263345206.7014             TOTAL OUT =    23701813.3656

            IN - OUT =       13307.2902              IN - OUT =          -0.8999

 PERCENT DISCREPANCY =           0.00     PERCENT DISCREPANCY =          -0.00




         TIME SUMMARY AT END OF TIME STEP    1 IN STRESS PERIOD  992
                          TIME STEP LENGTH =    1.00000    
                        STRESS PERIOD TIME =    1.00000    
                     TOTAL SIMULATION TIME =    992.000    

end timestep


start timestep kper="993" kstp="1" mode="normal"


 OUTPUT CONTROL FOR STRESS PERIOD 993 IS REPEATED USING SETTINGS FROM A PREVIOUS STRESS PERIOD.


 STRESS PERIOD 993 IS TRANSIENT


 REUSING WELS FROM LAST STRESS PERIOD

 REUSING DRNS FROM LAST STRESS PERIOD

 REUSING RCHS FROM LAST STRESS PERIOD


  VOLUME BUDGET FOR ENTIRE MODEL AT END OF TIME STEP    1, STRESS PERIOD 993
  ---------------------------------------------------------------------------------------------------

     CUMULATIVE VOLUME      L**3       RATES FOR THIS TIME STEP      L**3/T          PACKAGE NAME    
     ------------------                 ------------------------                     ----------------

           IN:                                      IN:
           ---                                      ---
              STO-SS =           0.0000                STO-SS =           0.0000     STORAGE         
              STO-SY = 18518226673.7878                STO-SY =    38310671.9704     STORAGE         
                 WEL =           0.0000                   WEL =           0.0000     WEL_0           
                 DRN =           0.0000                   DRN =           0.0000     DRN_0           
                 RCH = 43812483823.3284                   RCH =    29041311.1543     RCH_0           

            TOTAL IN = 62330710497.1163              TOTAL IN =    67351983.1247

          OUT:                                     OUT:
          ----                                     ----
              STO-SS =           0.0000                STO-SS =           0.0000     STORAGE         
              STO-SY = 15803499746.6635                STO-SY =     6419047.5413     STORAGE         
                 WEL = 10035736974.7104                   WEL =    43429102.4777     WEL_0           
                 DRN = 36491460445.5859                   DRN =    17503810.2394     DRN_0           
                 RCH =           0.0000                   RCH =           0.0000     RCH_0           

           TOTAL OUT = 62330697166.9598             TOTAL OUT =    67351960.2584

            IN - OUT =       13330.1565              IN - OUT =          22.8663

 PERCENT DISCREPANCY =           0.00     PERCENT DISCREPANCY =           0.00




         TIME SUMMARY AT END OF TIME STEP    1 IN STRESS PERIOD  993
                          TIME STEP LENGTH =    1.00000    
                        STRESS PERIOD TIME =    1.00000    
                     TOTAL SIMULATION TIME =    993.000    

end timestep


start timestep kper="994" kstp="1" mode="normal"


 OUTPUT CONTROL FOR STRESS PERIOD 994 IS REPEATED USING SETTINGS FROM A PREVIOUS STRESS PERIOD.


 STRESS PERIOD 994 IS TRANSIENT


 REUSING WELS FROM LAST STRESS PERIOD

 REUSING DRNS FROM LAST STRESS PERIOD

 REUSING RCHS FROM LAST STRESS PERIOD


  VOLUME BUDGET FOR ENTIRE MODEL AT END OF TIME STEP    1, STRESS PERIOD 994
  ---------------------------------------------------------------------------------------------------

     CUMULATIVE VOLUME      L**3       RATES FOR THIS TIME STEP      L**3/T          PACKAGE NAME    
     ------------------                 ------------------------                     ----------------

           IN:                                      IN:
           ---                                      ---
              STO-SS =           0.0000                STO-SS =           0.0000     STORAGE         
              STO-SY = 18544869454.7047                STO-SY =    26642780.9168     STORAGE         
                 WEL =           0.0000                   WEL =           0.0000     WEL_0           
                 DRN =           0.0000                   DRN =           0.0000     DRN_0           
                 RCH = 43829367382.0657                   RCH =    16883558.7373     RCH_0           

            TOTAL IN = 62374236836.7704              TOTAL IN =    43526339.6542

          OUT:                                     OUT:
          ----                                     ----
              STO-SS =           0.0000                STO-SS =           0.0000     STORAGE         
              STO-SY = 15807275354.9646                STO-SY =     3775608.3010     STORAGE         
                 WEL = 10061373065.8202                   WEL =    25636091.1098     WEL_0           
                 DRN = 36505575085.7799                   DRN =    14114640.1940     DRN_0           
                 RCH =           0.0000                   RCH =           0.0000     RCH_0           

           TOTAL OUT = 62374223506.5646             TOTAL OUT =    43526339.6048

            IN - OUT =       13330.2058              IN - OUT =       4.9337E-02

 PERCENT DISCREPANCY =           0.00     PERCENT DISCREPANCY =           0.00




         TIME SUMMARY AT END OF TIME STEP    1 IN STRESS PERIOD  994
                          TIME STEP LENGTH =    1.00000    
                        STRESS PERIOD TIME =    1.00000    
                     TOTAL SIMULATION TIME =    994.000    

end timestep


start timestep kper="995" kstp="1" mode="normal"


 OUTPUT CONTROL FOR STRESS PERIOD 995 IS REPEATED USING SETTINGS FROM A PREVIOUS STRESS PERIOD.


 STRESS PERIOD 995 IS TRANSIENT


 REUSING WELS FROM LAST STRESS PERIOD

 REUSING DRNS FROM LAST STRESS PERIOD

 REUSING RCHS FROM LAST STRESS PERIOD


  VOLUME BUDGET FOR ENTIRE MODEL AT END OF TIME STEP    1, STRESS PERIOD 995
  ---------------------------------------------------------------------------------------------------

     CUMULATIVE VOLUME      L**3       RATES FOR THIS TIME STEP      L**3/T          PACKAGE NAME    
     ------------------                 ------------------------                     ----------------

           IN:                                      IN:
           ---                                      ---
              STO-SS =           0.0000                STO-SS =           0.0000     STORAGE         
              STO-SY = 18570709917.4170                STO-SY =    25840462.7123     STORAGE         
                 WEL =           0.0000                   WEL =           0.0000     WEL_0           
                 DRN =           0.0000                   DRN =           0.0000     DRN_0           
                 RCH = 43849659552.2321                   RCH =    20292170.1664     RCH_0           

            TOTAL IN = 62420369469.6491              TOTAL IN =    46132632.8787

          OUT:                                     OUT:
          ----                                     ----
              STO-SS =           0.0000                STO-SS =           0.0000     STORAGE         
              STO-SY = 15811350212.7124                STO-SY =     4074857.7479     STORAGE         
                 WEL = 10086747993.6647                   WEL =    25374927.8446     WEL_0           
                 DRN = 36522257923.7378                   DRN =    16682837.9579     DRN_0           
                 RCH =           0.0000                   RCH =           0.0000     RCH_0           

           TOTAL OUT = 62420356130.1149             TOTAL OUT =    46132623.5503

            IN - OUT =       13339.5342              IN - OUT =           9.3284

 PERCENT DISCREPANCY =           0.00     PERCENT DISCREPANCY =           0.00




         TIME SUMMARY AT END OF TIME STEP    1 IN STRESS PERIOD  995
                          TIME STEP LENGTH =    1.00000    
                        STRESS PERIOD TIME =    1.00000    
                     TOTAL SIMULATION TIME =    995.000    

end timestep


start timestep kper="996" kstp="1" mode="normal"


 OUTPUT CONTROL FOR STRESS PERIOD 996 IS REPEATED USING SETTINGS FROM A PREVIOUS STRESS PERIOD.


 STRESS PERIOD 996 IS TRANSIENT


 REUSING WELS FROM LAST STRESS PERIOD

 REUSING DRNS FROM LAST STRESS PERIOD

 REUSING RCHS FROM LAST STRESS PERIOD


  VOLUME BUDGET FOR ENTIRE MODEL AT END OF TIME STEP    1, STRESS PERIOD 996
  ---------------------------------------------------------------------------------------------------

     CUMULATIVE VOLUME      L**3       RATES FOR THIS TIME STEP      L**3/T          PACKAGE NAME    
     ------------------                 ------------------------                     ----------------

           IN:                                      IN:
           ---                                      ---
              STO-SS =           0.0000                STO-SS =           0.0000     STORAGE         
              STO-SY = 18590491333.3239                STO-SY =    19781415.9069     STORAGE         
                 WEL =           0.0000                   WEL =           0.0000     WEL_0           
                 DRN =           0.0000                   DRN =           0.0000     DRN_0           
                 RCH = 43861574216.8449                   RCH =    11914664.6128     RCH_0           

            TOTAL IN = 62452065550.1688              TOTAL IN =    31696080.5197

          OUT:                                     OUT:
          ----                                     ----
              STO-SS =           0.0000                STO-SS =           0.0000     STORAGE         
              STO-SY = 15814962565.0256                STO-SY =     3612352.3131     STORAGE         
                 WEL = 10100818537.4540                   WEL =    14070543.7893     WEL_0           
                 DRN = 36536271065.5823                   DRN =    14013141.8446     DRN_0           
                 RCH =           0.0000                   RCH =           0.0000     RCH_0           

           TOTAL OUT = 62452052168.0619             TOTAL OUT =    31696037.9470

            IN - OUT =       13382.1069              IN - OUT =          42.5727

 PERCENT DISCREPANCY =           0.00     PERCENT DISCREPANCY =           0.00




         TIME SUMMARY AT END OF TIME STEP    1 IN STRESS PERIOD  996
                          TIME STEP LENGTH =    1.00000    
                        STRESS PERIOD TIME =    1.00000    
                     TOTAL SIMULATION TIME =    996.000    

end timestep


start timestep kper="997" kstp="1" mode="normal"


 OUTPUT CONTROL FOR STRESS PERIOD 997 IS REPEATED USING SETTINGS FROM A PREVIOUS STRESS PERIOD.


 STRESS PERIOD 997 IS TRANSIENT


 REUSING WELS FROM LAST STRESS PERIOD

 REUSING DRNS FROM LAST STRESS PERIOD

 REUSING RCHS FROM LAST STRESS PERIOD


  VOLUME BUDGET FOR ENTIRE MODEL AT END OF TIME STEP    1, STRESS PERIOD 997
  ---------------------------------------------------------------------------------------------------

     CUMULATIVE VOLUME      L**3       RATES FOR THIS TIME STEP      L**3/T          PACKAGE NAME    
     ------------------                 ------------------------                     ----------------

           IN:                                      IN:
           ---                                      ---
              STO-SS =           0.0000                STO-SS =           0.0000     STORAGE         
              STO-SY = 18605270991.1674                STO-SY =    14779657.8435     STORAGE         
                 WEL =           0.0000                   WEL =           0.0000     WEL_0           
                 DRN =           0.0000                   DRN =           0.0000     DRN_0           
                 RCH = 43869509776.1851                   RCH =     7935559.3401     RCH_0           

            TOTAL IN = 62474780767.3524              TOTAL IN =    22715217.1836

          OUT:                                     OUT:
          ----                                     ----
              STO-SS =           0.0000                STO-SS =           0.0000     STORAGE         
              STO-SY = 15818233169.4975                STO-SY =     3270604.4719     STORAGE         
                 WEL = 10105004254.5404                   WEL =     4185717.0864     WEL_0           
                 DRN = 36551529945.6631                   DRN =    15258880.0808     DRN_0           
                 RCH =           0.0000                   RCH =           0.0000     RCH_0           

           TOTAL OUT = 62474767369.7010             TOTAL OUT =    22715201.6391

            IN - OUT =       13397.6514              IN - OUT =          15.5445

 PERCENT DISCREPANCY =           0.00     PERCENT DISCREPANCY =           0.00




         TIME SUMMARY AT END OF TIME STEP    1 IN STRESS PERIOD  997
                          TIME STEP LENGTH =    1.00000    
                        STRESS PERIOD TIME =    1.00000    
                     TOTAL SIMULATION TIME =    997.000    

end timestep


start timestep kper="998" kstp="1" mode="normal"


 OUTPUT CONTROL FOR STRESS PERIOD 998 IS REPEATED USING SETTINGS FROM A PREVIOUS STRESS PERIOD.


 STRESS PERIOD 998 IS TRANSIENT


 REUSING WELS FROM LAST STRESS PERIOD

 REUSING DRNS FROM LAST STRESS PERIOD

 REUSING RCHS FROM LAST STRESS PERIOD


  VOLUME BUDGET FOR ENTIRE MODEL AT END OF TIME STEP    1, STRESS PERIOD 998
  ---------------------------------------------------------------------------------------------------

     CUMULATIVE VOLUME      L**3       RATES FOR THIS TIME STEP      L**3/T          PACKAGE NAME    
     ------------------                 ------------------------                     ----------------

           IN:                                      IN:
           ---                                      ---
              STO-SS =           0.0000                STO-SS =           0.0000     STORAGE         
              STO-SY = 18620462173.7991                STO-SY =    15191182.6317     STORAGE         
                 WEL =           0.0000                   WEL =           0.0000     WEL_0           
                 DRN =           0.0000                   DRN =           0.0000     DRN_0           
                 RCH = 43876579283.6614                   RCH =     7069507.4763     RCH_0           

            TOTAL IN = 62497041457.4604              TOTAL IN =    22260690.1080

          OUT:                                     OUT:
          ----                                     ----
              STO-SS =           0.0000                STO-SS =           0.0000     STORAGE         
              STO-SY = 15821273851.4014                STO-SY =     3040681.9039     STORAGE         
                 WEL = 10110454416.3220                   WEL =     5450161.7815     WEL_0           
                 DRN = 36565299792.5893                   DRN =    13769846.9262     DRN_0           
                 RCH =           0.0000                   RCH =           0.0000     RCH_0           

           TOTAL OUT = 62497028060.3127             TOTAL OUT =    22260690.6117

            IN - OUT =       13397.1478              IN - OUT =          -0.5037

 PERCENT DISCREPANCY =           0.00     PERCENT DISCREPANCY =          -0.00




         TIME SUMMARY AT END OF TIME STEP    1 IN STRESS PERIOD  998
                          TIME STEP LENGTH =    1.00000    
                        STRESS PERIOD TIME =    1.00000    
                     TOTAL SIMULATION TIME =    998.000    

end timestep


start timestep kper="999" kstp="1" mode="normal"


 OUTPUT CONTROL FOR STRESS PERIOD 999 IS REPEATED USING SETTINGS FROM A PREVIOUS STRESS PERIOD.


 STRESS PERIOD 999 IS TRANSIENT


 REUSING WELS FROM LAST STRESS PERIOD

 REUSING DRNS FROM LAST STRESS PERIOD

 REUSING RCHS FROM LAST STRESS PERIOD


  VOLUME BUDGET FOR ENTIRE MODEL AT END OF TIME STEP    1, STRESS PERIOD 999
  ---------------------------------------------------------------------------------------------------

     CUMULATIVE VOLUME      L**3       RATES FOR THIS TIME STEP      L**3/T          PACKAGE NAME    
     ------------------                 ------------------------                     ----------------

           IN:                                      IN:
           ---                                      ---
              STO-SS =           0.0000                STO-SS =           0.0000     STORAGE         
              STO-SY = 18649549552.4212                STO-SY =    29087378.6222     STORAGE         
                 WEL =           0.0000                   WEL =           0.0000     WEL_0           
                 DRN =           0.0000                   DRN =           0.0000     DRN_0           
                 RCH = 43895742762.4037                   RCH =    19163478.7423     RCH_0           

            TOTAL IN = 62545292314.8249              TOTAL IN =    48250857.3645

          OUT:                                     OUT:
          ----                                     ----
              STO-SS =           0.0000                STO-SS =           0.0000     STORAGE         
              STO-SY = 15825104900.0058                STO-SY =     3831048.6044     STORAGE         
                 WEL = 10139248621.7988                   WEL =    28794205.4768     WEL_0           
                 DRN = 36580925392.0937                   DRN =    15625599.5044     DRN_0           
                 RCH =           0.0000                   RCH =           0.0000     RCH_0           

           TOTAL OUT = 62545278913.8983             TOTAL OUT =    48250853.5856

            IN - OUT =       13400.9266              IN - OUT =           3.7789

 PERCENT DISCREPANCY =           0.00     PERCENT DISCREPANCY =           0.00




         TIME SUMMARY AT END OF TIME STEP    1 IN STRESS PERIOD  999
                          TIME STEP LENGTH =    1.00000    
                        STRESS PERIOD TIME =    1.00000    
                     TOTAL SIMULATION TIME =    999.000    

end timestep


start timestep kper="1000" kstp="1" mode="normal"


 OUTPUT CONTROL FOR STRESS PERIOD 1000 IS REPEATED USING SETTINGS FROM A PREVIOUS STRESS PERIOD.


 STRESS PERIOD 1000 IS TRANSIENT


 REUSING WELS FROM LAST STRESS PERIOD

 REUSING DRNS FROM LAST STRESS PERIOD

 REUSING RCHS FROM LAST STRESS PERIOD


  VOLUME BUDGET FOR ENTIRE MODEL AT END OF TIME STEP    1, STRESS PERIOD1000
  ---------------------------------------------------------------------------------------------------

     CUMULATIVE VOLUME      L**3       RATES FOR THIS TIME STEP      L**3/T          PACKAGE NAME    
     ------------------                 ------------------------                     ----------------

           IN:                                      IN:
           ---                                      ---
              STO-SS =           0.0000                STO-SS =           0.0000     STORAGE         
              STO-SY = 18690069356.9432                STO-SY =    40519804.5220     STORAGE         
                 WEL =           0.0000                   WEL =           0.0000     WEL_0           
                 DRN =           0.0000                   DRN =           0.0000     DRN_0           
                 RCH = 43921998368.3440                   RCH =    26255605.9404     RCH_0           

            TOTAL IN = 62612067725.2873              TOTAL IN =    66775410.4624

          OUT:                                     OUT:
          ----                                     ----
              STO-SS =           0.0000                STO-SS =           0.0000     STORAGE         
              STO-SY = 15829937462.8232                STO-SY =     4832562.8174     STORAGE         
                 WEL = 10187448896.7614                   WEL =    48200274.9626     WEL_0           
                 DRN = 36594667967.7654                   DRN =    13742575.6717     DRN_0           
                 RCH =           0.0000                   RCH =           0.0000     RCH_0           

           TOTAL OUT = 62612054327.3501             TOTAL OUT =    66775413.4518

            IN - OUT =       13397.9372              IN - OUT =          -2.9894

 PERCENT DISCREPANCY =           0.00     PERCENT DISCREPANCY =          -0.00




         TIME SUMMARY AT END OF TIME STEP    1 IN STRESS PERIOD 1000
                          TIME STEP LENGTH =    1.00000    
                        STRESS PERIOD TIME =    1.00000    
                     TOTAL SIMULATION TIME =    1000.00    

end timestep


start timestep kper="1001" kstp="1" mode="normal"


 OUTPUT CONTROL FOR STRESS PERIOD 1001 IS REPEATED USING SETTINGS FROM A PREVIOUS STRESS PERIOD.


 STRESS PERIOD 1001 IS TRANSIENT


 REUSING WELS FROM LAST STRESS PERIOD

 REUSING DRNS FROM LAST STRESS PERIOD

 REUSING RCHS FROM LAST STRESS PERIOD


  VOLUME BUDGET FOR ENTIRE MODEL AT END OF TIME STEP    1, STRESS PERIOD1001
  ---------------------------------------------------------------------------------------------------

     CUMULATIVE VOLUME      L**3       RATES FOR THIS TIME STEP      L**3/T          PACKAGE NAME    
     ------------------                 ------------------------                     ----------------

           IN:                                      IN:
           ---                                      ---
              STO-SS =           0.0000                STO-SS =           0.0000     STORAGE         
              STO-SY = 18723309016.6825                STO-SY =    33239659.7393     STORAGE         
                 WEL =           0.0000                   WEL =           0.0000     WEL_0           
                 DRN =           0.0000                   DRN =           0.0000     DRN_0           
                 RCH = 43946007285.9859                   RCH =    24008917.6419     RCH_0           

            TOTAL IN = 62669316302.6685              TOTAL IN =    57248577.3812

          OUT:                                     OUT:
          ----                                     ----
              STO-SS =           0.0000                STO-SS =           0.0000     STORAGE         
              STO-SY = 15833617569.3413                STO-SY =     3680106.5181     STORAGE         
                 WEL = 10225214019.3933                   WEL =    37765122.6319     WEL_0           
                 DRN = 36610471303.4156                   DRN =    15803335.6503     DRN_0           
                 RCH =           0.0000                   RCH =           0.0000     RCH_0           

           TOTAL OUT = 62669302892.1503             TOTAL OUT =    57248564.8002

            IN - OUT =       13410.5182              IN - OUT =          12.5810

 PERCENT DISCREPANCY =           0.00     PERCENT DISCREPANCY =           0.00




         TIME SUMMARY AT END OF TIME STEP    1 IN STRESS PERIOD 1001
                          TIME STEP LENGTH =    1.00000    
                        STRESS PERIOD TIME =    1.00000    
                     TOTAL SIMULATION TIME =    1001.00    

end timestep


start timestep kper="1002" kstp="1" mode="normal"


 OUTPUT CONTROL FOR STRESS PERIOD 1002 IS REPEATED USING SETTINGS FROM A PREVIOUS STRESS PERIOD.


 STRESS PERIOD 1002 IS TRANSIENT


 REUSING WELS FROM LAST STRESS PERIOD

 REUSING DRNS FROM LAST STRESS PERIOD

 REUSING RCHS FROM LAST STRESS PERIOD


  VOLUME BUDGET FOR ENTIRE MODEL AT END OF TIME STEP    1, STRESS PERIOD1002
  ---------------------------------------------------------------------------------------------------

     CUMULATIVE VOLUME      L**3       RATES FOR THIS TIME STEP      L**3/T          PACKAGE NAME    
     ------------------                 ------------------------                     ----------------

           IN:                                      IN:
           ---                                      ---
              STO-SS =           0.0000                STO-SS =           0.0000     STORAGE         
              STO-SY = 18737356367.5597                STO-SY =    14047350.8772     STORAGE         
                 WEL =           0.0000                   WEL =           0.0000     WEL_0           
                 DRN =           0.0000                   DRN =           0.0000     DRN_0           
                 RCH = 43958645104.1751                   RCH =    12637818.1891     RCH_0           

            TOTAL IN = 62696001471.7348              TOTAL IN =    26685169.0663

          OUT:                                     OUT:
          ----                                     ----
              STO-SS =           0.0000                STO-SS =           0.0000     STORAGE         
              STO-SY = 15839444393.7035                STO-SY =     5826824.3622     STORAGE         
                 WEL = 10232559273.4180                   WEL =     7345254.0246     WEL_0           
                 DRN = 36623984378.0715                   DRN =    13513074.6559     DRN_0           
                 RCH =           0.0000                   RCH =           0.0000     RCH_0           

           TOTAL OUT = 62695988045.1930             TOTAL OUT =    26685153.0427

            IN - OUT =       13426.5418              IN - OUT =          16.0236

 PERCENT DISCREPANCY =           0.00     PERCENT DISCREPANCY =           0.00




         TIME SUMMARY AT END OF TIME STEP    1 IN STRESS PERIOD 1002
                          TIME STEP LENGTH =    1.00000    
                        STRESS PERIOD TIME =    1.00000    
                     TOTAL SIMULATION TIME =    1002.00    

end timestep


start timestep kper="1003" kstp="1" mode="normal"


 OUTPUT CONTROL FOR STRESS PERIOD 1003 IS REPEATED USING SETTINGS FROM A PREVIOUS STRESS PERIOD.


 STRESS PERIOD 1003 IS TRANSIENT


 REUSING WELS FROM LAST STRESS PERIOD

 REUSING DRNS FROM LAST STRESS PERIOD

 REUSING RCHS FROM LAST STRESS PERIOD


  VOLUME BUDGET FOR ENTIRE MODEL AT END OF TIME STEP    1, STRESS PERIOD1003
  ---------------------------------------------------------------------------------------------------

     CUMULATIVE VOLUME      L**3       RATES FOR THIS TIME STEP      L**3/T          PACKAGE NAME    
     ------------------                 ------------------------                     ----------------

           IN:                                      IN:
           ---                                      ---
              STO-SS =           0.0000                STO-SS =           0.0000     STORAGE         
              STO-SY = 18753572980.7869                STO-SY =    16216613.2272     STORAGE         
                 WEL =           0.0000                   WEL =           0.0000     WEL_0           
                 DRN =           0.0000                   DRN =           0.0000     DRN_0           
                 RCH = 43968208469.9665                   RCH =     9563365.7914     RCH_0           

            TOTAL IN = 62721781450.7534              TOTAL IN =    25779979.0186

          OUT:                                     OUT:
          ----                                     ----
              STO-SS =           0.0000                STO-SS =           0.0000     STORAGE         
              STO-SY = 15842709010.7455                STO-SY =     3264617.0420     STORAGE         
                 WEL = 10240765878.4891                   WEL =     8206605.0711     WEL_0           
                 DRN = 36638293125.3246                   DRN =    14308747.2531     DRN_0           
                 RCH =           0.0000                   RCH =           0.0000     RCH_0           

           TOTAL OUT = 62721768014.5591             TOTAL OUT =    25779969.3661

            IN - OUT =       13436.1942              IN - OUT =           9.6525

 PERCENT DISCREPANCY =           0.00     PERCENT DISCREPANCY =           0.00




         TIME SUMMARY AT END OF TIME STEP    1 IN STRESS PERIOD 1003
                          TIME STEP LENGTH =    1.00000    
                        STRESS PERIOD TIME =    1.00000    
                     TOTAL SIMULATION TIME =    1003.00    

end timestep


start timestep kper="1004" kstp="1" mode="normal"


 OUTPUT CONTROL FOR STRESS PERIOD 1004 IS REPEATED USING SETTINGS FROM A PREVIOUS STRESS PERIOD.


 STRESS PERIOD 1004 IS TRANSIENT


 REUSING WELS FROM LAST STRESS PERIOD

 REUSING DRNS FROM LAST STRESS PERIOD

 REUSING RCHS FROM LAST STRESS PERIOD


  VOLUME BUDGET FOR ENTIRE MODEL AT END OF TIME STEP    1, STRESS PERIOD1004
  ---------------------------------------------------------------------------------------------------

     CUMULATIVE VOLUME      L**3       RATES FOR THIS TIME STEP      L**3/T          PACKAGE NAME    
     ------------------                 ------------------------                     ----------------

           IN:                                      IN:
           ---                                      ---
              STO-SS =           0.0000                STO-SS =           0.0000     STORAGE         
              STO-SY = 18768882241.3202                STO-SY =    15309260.5332     STORAGE         
                 WEL =           0.0000                   WEL =           0.0000     WEL_0           
                 DRN =           0.0000                   DRN =           0.0000     DRN_0           
                 RCH = 43974626923.6925                   RCH =     6418453.7260     RCH_0           

            TOTAL IN = 62743509165.0126              TOTAL IN =    21727714.2592

          OUT:                                     OUT:
          ----                                     ----
              STO-SS =           0.0000                STO-SS =           0.0000     STORAGE         
              STO-SY = 15845846511.8850                STO-SY =     3137501.1395     STORAGE         
                 WEL = 10246202063.5815                   WEL =     5436185.0924     WEL_0           
                 DRN = 36651447153.2937                   DRN =    13154027.9691     DRN_0           
                 RCH =           0.0000                   RCH =           0.0000     RCH_0           

           TOTAL OUT = 62743495728.7601             TOTAL OUT =    21727714.2010

            IN - OUT =       13436.2525              IN - OUT =       5.8228E-02

 PERCENT DISCREPANCY =           0.00     PERCENT DISCREPANCY =           0.00




         TIME SUMMARY AT END OF TIME STEP    1 IN STRESS PERIOD 1004
                          TIME STEP LENGTH =    1.00000    
                        STRESS PERIOD TIME =    1.00000    
                     TOTAL SIMULATION TIME =    1004.00    

end timestep


start timestep kper="1005" kstp="1" mode="normal"


 OUTPUT CONTROL FOR STRESS PERIOD 1005 IS REPEATED USING SETTINGS FROM A PREVIOUS STRESS PERIOD.


 STRESS PERIOD 1005 IS TRANSIENT


 REUSING WELS FROM LAST STRESS PERIOD

 REUSING DRNS FROM LAST STRESS PERIOD

 REUSING RCHS FROM LAST STRESS PERIOD


  VOLUME BUDGET FOR ENTIRE MODEL AT END OF TIME STEP    1, STRESS PERIOD1005
  ---------------------------------------------------------------------------------------------------

     CUMULATIVE VOLUME      L**3       RATES FOR THIS TIME STEP      L**3/T          PACKAGE NAME    
     ------------------                 ------------------------                     ----------------

           IN:                                      IN:
           ---                                      ---
              STO-SS =           0.0000                STO-SS =           0.0000     STORAGE         
              STO-SY = 18783378722.7212                STO-SY =    14496481.4010     STORAGE         
                 WEL =           0.0000                   WEL =           0.0000     WEL_0           
                 DRN =           0.0000                   DRN =           0.0000     DRN_0           
                 RCH = 43986868400.7808                   RCH =    12241477.0884     RCH_0           

            TOTAL IN = 62770247123.5020              TOTAL IN =    26737958.4894

          OUT:                                     OUT:
          ----                                     ----
              STO-SS =           0.0000                STO-SS =           0.0000     STORAGE         
              STO-SY = 15850726239.3278                STO-SY =     4879727.4428     STORAGE         
                 WEL = 10252062947.5991                   WEL =     5860884.0176     WEL_0           
                 DRN = 36667444501.2030                   DRN =    15997347.9093     DRN_0           
                 RCH =           0.0000                   RCH =           0.0000     RCH_0           

           TOTAL OUT = 62770233688.1299             TOTAL OUT =    26737959.3698

            IN - OUT =       13435.3721              IN - OUT =          -0.8804

 PERCENT DISCREPANCY =           0.00     PERCENT DISCREPANCY =          -0.00




         TIME SUMMARY AT END OF TIME STEP    1 IN STRESS PERIOD 1005
                          TIME STEP LENGTH =    1.00000    
                        STRESS PERIOD TIME =    1.00000    
                     TOTAL SIMULATION TIME =    1005.00    

end timestep


start timestep kper="1006" kstp="1" mode="normal"


 OUTPUT CONTROL FOR STRESS PERIOD 1006 IS REPEATED USING SETTINGS FROM A PREVIOUS STRESS PERIOD.


 STRESS PERIOD 1006 IS TRANSIENT


 REUSING WELS FROM LAST STRESS PERIOD

 REUSING DRNS FROM LAST STRESS PERIOD

 REUSING RCHS FROM LAST STRESS PERIOD


  VOLUME BUDGET FOR ENTIRE MODEL AT END OF TIME STEP    1, STRESS PERIOD1006
  ---------------------------------------------------------------------------------------------------

     CUMULATIVE VOLUME      L**3       RATES FOR THIS TIME STEP      L**3/T          PACKAGE NAME    
     ------------------                 ------------------------                     ----------------

           IN:                                      IN:
           ---                                      ---
              STO-SS =           0.0000                STO-SS =           0.0000     STORAGE         
              STO-SY = 18799424720.9854                STO-SY =    16045998.2642     STORAGE         
                 WEL =           0.0000                   WEL =           0.0000     WEL_0           
                 DRN =           0.0000                   DRN =           0.0000     DRN_0           
                 RCH = 43998122093.5688                   RCH =    11253692.7879     RCH_0           

            TOTAL IN = 62797546814.5542              TOTAL IN =    27299691.0522

          OUT:                                     OUT:
          ----                                     ----
              STO-SS =           0.0000                STO-SS =           0.0000     STORAGE         
              STO-SY = 15855280402.7815                STO-SY =     4554163.4537     STORAGE         
                 WEL = 10260878961.2706                   WEL =     8816013.6715     WEL_0           
                 DRN = 36681374016.6038                   DRN =    13929515.4008     DRN_0           
                 RCH =           0.0000                   RCH =           0.0000     RCH_0           

           TOTAL OUT = 62797533380.6559             TOTAL OUT =    27299692.5260

            IN - OUT =       13433.8983              IN - OUT =          -1.4738

 PERCENT DISCREPANCY =           0.00     PERCENT DISCREPANCY =          -0.00




         TIME SUMMARY AT END OF TIME STEP    1 IN STRESS PERIOD 1006
                          TIME STEP LENGTH =    1.00000    
                        STRESS PERIOD TIME =    1.00000    
                     TOTAL SIMULATION TIME =    1006.00    

end timestep


start timestep kper="1007" kstp="1" mode="normal"


 OUTPUT CONTROL FOR STRESS PERIOD 1007 IS REPEATED USING SETTINGS FROM A PREVIOUS STRESS PERIOD.


 STRESS PERIOD 1007 IS TRANSIENT


 REUSING WELS FROM LAST STRESS PERIOD

 REUSING DRNS FROM LAST STRESS PERIOD

 REUSING RCHS FROM LAST STRESS PERIOD


  VOLUME BUDGET FOR ENTIRE MODEL AT END OF TIME STEP    1, STRESS PERIOD1007
  ---------------------------------------------------------------------------------------------------

     CUMULATIVE VOLUME      L**3       RATES FOR THIS TIME STEP      L**3/T          PACKAGE NAME    
     ------------------                 ------------------------                     ----------------

           IN:                                      IN:
           ---                                      ---
              STO-SS =           0.0000                STO-SS =           0.0000     STORAGE         
              STO-SY = 18806938563.3150                STO-SY =     7513842.3296     STORAGE         
                 WEL =           0.0000                   WEL =           0.0000     WEL_0           
                 DRN =           0.0000                   DRN =           0.0000     DRN_0           
                 RCH = 44051253007.1182                   RCH =    53130913.5494     RCH_0           

            TOTAL IN = 62858191570.4332              TOTAL IN =    60644755.8790

          OUT:                                     OUT:
          ----                                     ----
              STO-SS =           0.0000                STO-SS =           0.0000     STORAGE         
              STO-SY = 15891063208.8039                STO-SY =    35782806.0224     STORAGE         
                 WEL = 10264088857.1377                   WEL =     3209895.8671     WEL_0           
                 DRN = 36703026022.8251                   DRN =    21652006.2212     DRN_0           
                 RCH =           0.0000                   RCH =           0.0000     RCH_0           

           TOTAL OUT = 62858178088.7667             TOTAL OUT =    60644708.1108

            IN - OUT =       13481.6665              IN - OUT =          47.7682

 PERCENT DISCREPANCY =           0.00     PERCENT DISCREPANCY =           0.00




         TIME SUMMARY AT END OF TIME STEP    1 IN STRESS PERIOD 1007
                          TIME STEP LENGTH =    1.00000    
                        STRESS PERIOD TIME =    1.00000    
                     TOTAL SIMULATION TIME =    1007.00    

end timestep


start timestep kper="1008" kstp="1" mode="normal"


 OUTPUT CONTROL FOR STRESS PERIOD 1008 IS REPEATED USING SETTINGS FROM A PREVIOUS STRESS PERIOD.


 STRESS PERIOD 1008 IS TRANSIENT


 REUSING WELS FROM LAST STRESS PERIOD

 REUSING DRNS FROM LAST STRESS PERIOD

 REUSING RCHS FROM LAST STRESS PERIOD


  VOLUME BUDGET FOR ENTIRE MODEL AT END OF TIME STEP    1, STRESS PERIOD1008
  ---------------------------------------------------------------------------------------------------

     CUMULATIVE VOLUME      L**3       RATES FOR THIS TIME STEP      L**3/T          PACKAGE NAME    
     ------------------                 ------------------------                     ----------------

           IN:                                      IN:
           ---                                      ---
              STO-SS =           0.0000                STO-SS =           0.0000     STORAGE         
              STO-SY = 18820847255.5939                STO-SY =    13908692.2789     STORAGE         
                 WEL =           0.0000                   WEL =           0.0000     WEL_0           
                 DRN =           0.0000                   DRN =           0.0000     DRN_0           
                 RCH = 44056491228.5592                   RCH =     5238221.4410     RCH_0           

            TOTAL IN = 62877338484.1531              TOTAL IN =    19146913.7199

          OUT:                                     OUT:
          ----                                     ----
              STO-SS =           0.0000                STO-SS =           0.0000     STORAGE         
              STO-SY = 15894052913.9749                STO-SY =     2989705.1709     STORAGE         
                 WEL = 10266594689.3688                   WEL =     2505832.2311     WEL_0           
                 DRN = 36716677405.3023                   DRN =    13651382.4773     DRN_0           
                 RCH =           0.0000                   RCH =           0.0000     RCH_0           

           TOTAL OUT = 62877325008.6460             TOTAL OUT =    19146919.8793

            IN - OUT =       13475.5071              IN - OUT =          -6.1594

 PERCENT DISCREPANCY =           0.00     PERCENT DISCREPANCY =          -0.00




         TIME SUMMARY AT END OF TIME STEP    1 IN STRESS PERIOD 1008
                          TIME STEP LENGTH =    1.00000    
                        STRESS PERIOD TIME =    1.00000    
                     TOTAL SIMULATION TIME =    1008.00    

end timestep


start timestep kper="1009" kstp="1" mode="normal"


 OUTPUT CONTROL FOR STRESS PERIOD 1009 IS REPEATED USING SETTINGS FROM A PREVIOUS STRESS PERIOD.


 STRESS PERIOD 1009 IS TRANSIENT


 REUSING WELS FROM LAST STRESS PERIOD

 REUSING DRNS FROM LAST STRESS PERIOD

 REUSING RCHS FROM LAST STRESS PERIOD


  VOLUME BUDGET FOR ENTIRE MODEL AT END OF TIME STEP    1, STRESS PERIOD1009
  ---------------------------------------------------------------------------------------------------

     CUMULATIVE VOLUME      L**3       RATES FOR THIS TIME STEP      L**3/T          PACKAGE NAME    
     ------------------                 ------------------------                     ----------------

           IN:                                      IN:
           ---                                      ---
              STO-SS =           0.0000                STO-SS =           0.0000     STORAGE         
              STO-SY = 18834127424.4229                STO-SY =    13280168.8290     STORAGE         
                 WEL =           0.0000                   WEL =           0.0000     WEL_0           
                 DRN =           0.0000                   DRN =           0.0000     DRN_0           
                 RCH = 44063725965.5805                   RCH =     7234737.0213     RCH_0           

            TOTAL IN = 62897853390.0034              TOTAL IN =    20514905.8503

          OUT:                                     OUT:
          ----                                     ----
              STO-SS =           0.0000                STO-SS =           0.0000     STORAGE         
              STO-SY = 15897018143.7330                STO-SY =     2965229.7581     STORAGE         
                 WEL = 10269224791.9836                   WEL =     2630102.6148     WEL_0           
                 DRN = 36731596935.4291                   DRN =    14919530.1268     DRN_0           
                 RCH =           0.0000                   RCH =           0.0000     RCH_0           

           TOTAL OUT = 62897839871.1457             TOTAL OUT =    20514862.4998

            IN - OUT =       13518.8576              IN - OUT =          43.3505

 PERCENT DISCREPANCY =           0.00     PERCENT DISCREPANCY =           0.00




         TIME SUMMARY AT END OF TIME STEP    1 IN STRESS PERIOD 1009
                          TIME STEP LENGTH =    1.00000    
                        STRESS PERIOD TIME =    1.00000    
                     TOTAL SIMULATION TIME =    1009.00    

end timestep


start timestep kper="1010" kstp="1" mode="normal"


 OUTPUT CONTROL FOR STRESS PERIOD 1010 IS REPEATED USING SETTINGS FROM A PREVIOUS STRESS PERIOD.


 STRESS PERIOD 1010 IS TRANSIENT


 REUSING WELS FROM LAST STRESS PERIOD

 REUSING DRNS FROM LAST STRESS PERIOD

 REUSING RCHS FROM LAST STRESS PERIOD


  VOLUME BUDGET FOR ENTIRE MODEL AT END OF TIME STEP    1, STRESS PERIOD1010
  ---------------------------------------------------------------------------------------------------

     CUMULATIVE VOLUME      L**3       RATES FOR THIS TIME STEP      L**3/T          PACKAGE NAME    
     ------------------                 ------------------------                     ----------------

           IN:                                      IN:
           ---                                      ---
              STO-SS =           0.0000                STO-SS =           0.0000     STORAGE         
              STO-SY = 18847617290.9632                STO-SY =    13489866.5403     STORAGE         
                 WEL =           0.0000                   WEL =           0.0000     WEL_0           
                 DRN =           0.0000                   DRN =           0.0000     DRN_0           
                 RCH = 44070694451.2211                   RCH =     6968485.6406     RCH_0           

            TOTAL IN = 62918311742.1843              TOTAL IN =    20458352.1809

          OUT:                                     OUT:
          ----                                     ----
              STO-SS =           0.0000                STO-SS =           0.0000     STORAGE         
              STO-SY = 15900043945.6314                STO-SY =     3025801.8984     STORAGE         
                 WEL = 10273135485.1537                   WEL =     3910693.1701     WEL_0           
                 DRN = 36745118788.3806                   DRN =    13521852.9515     DRN_0           
                 RCH =           0.0000                   RCH =           0.0000     RCH_0           

           TOTAL OUT = 62918298219.1657             TOTAL OUT =    20458348.0200

            IN - OUT =       13523.0186              IN - OUT =           4.1609

 PERCENT DISCREPANCY =           0.00     PERCENT DISCREPANCY =           0.00




         TIME SUMMARY AT END OF TIME STEP    1 IN STRESS PERIOD 1010
                          TIME STEP LENGTH =    1.00000    
                        STRESS PERIOD TIME =    1.00000    
                     TOTAL SIMULATION TIME =    1010.00    

end timestep


start timestep kper="1011" kstp="1" mode="normal"


 OUTPUT CONTROL FOR STRESS PERIOD 1011 IS REPEATED USING SETTINGS FROM A PREVIOUS STRESS PERIOD.


 STRESS PERIOD 1011 IS TRANSIENT


 REUSING WELS FROM LAST STRESS PERIOD

 REUSING DRNS FROM LAST STRESS PERIOD

 REUSING RCHS FROM LAST STRESS PERIOD


  VOLUME BUDGET FOR ENTIRE MODEL AT END OF TIME STEP    1, STRESS PERIOD1011
  ---------------------------------------------------------------------------------------------------

     CUMULATIVE VOLUME      L**3       RATES FOR THIS TIME STEP      L**3/T          PACKAGE NAME    
     ------------------                 ------------------------                     ----------------

           IN:                                      IN:
           ---                                      ---
              STO-SS =           0.0000                STO-SS =           0.0000     STORAGE         
              STO-SY = 18861417620.1650                STO-SY =    13800329.2018     STORAGE         
                 WEL =           0.0000                   WEL =           0.0000     WEL_0           
                 DRN =           0.0000                   DRN =           0.0000     DRN_0           
                 RCH = 44080992712.7635                   RCH =    10298261.5424     RCH_0           

            TOTAL IN = 62942410332.9285              TOTAL IN =    24098590.7443

          OUT:                                     OUT:
          ----                                     ----
              STO-SS =           0.0000                STO-SS =           0.0000     STORAGE         
              STO-SY = 15903996100.0903                STO-SY =     3952154.4589     STORAGE         
                 WEL = 10278545999.4902                   WEL =     5410514.3365     WEL_0           
                 DRN = 36759854722.2655                   DRN =    14735933.8849     DRN_0           
                 RCH =           0.0000                   RCH =           0.0000     RCH_0           

           TOTAL OUT = 62942396821.8460             TOTAL OUT =    24098602.6803

            IN - OUT =       13511.0825              IN - OUT =         -11.9361

 PERCENT DISCREPANCY =           0.00     PERCENT DISCREPANCY =          -0.00




         TIME SUMMARY AT END OF TIME STEP    1 IN STRESS PERIOD 1011
                          TIME STEP LENGTH =    1.00000    
                        STRESS PERIOD TIME =    1.00000    
                     TOTAL SIMULATION TIME =    1011.00    

end timestep


start timestep kper="1012" kstp="1" mode="normal"


 OUTPUT CONTROL FOR STRESS PERIOD 1012 IS REPEATED USING SETTINGS FROM A PREVIOUS STRESS PERIOD.


 STRESS PERIOD 1012 IS TRANSIENT


 REUSING WELS FROM LAST STRESS PERIOD

 REUSING DRNS FROM LAST STRESS PERIOD

 REUSING RCHS FROM LAST STRESS PERIOD


  VOLUME BUDGET FOR ENTIRE MODEL AT END OF TIME STEP    1, STRESS PERIOD1012
  ---------------------------------------------------------------------------------------------------

     CUMULATIVE VOLUME      L**3       RATES FOR THIS TIME STEP      L**3/T          PACKAGE NAME    
     ------------------                 ------------------------                     ----------------

           IN:                                      IN:
           ---                                      ---
              STO-SS =           0.0000                STO-SS =           0.0000     STORAGE         
              STO-SY = 18871175112.8117                STO-SY =     9757492.6467     STORAGE         
                 WEL =           0.0000                   WEL =           0.0000     WEL_0           
                 DRN =           0.0000                   DRN =           0.0000     DRN_0           
                 RCH = 44111632424.9464                   RCH =    30639712.1829     RCH_0           

            TOTAL IN = 62982807537.7581              TOTAL IN =    40397204.8296

          OUT:                                     OUT:
          ----                                     ----
              STO-SS =           0.0000                STO-SS =           0.0000     STORAGE         
              STO-SY = 15923499256.7977                STO-SY =    19503156.7074     STORAGE         
                 WEL = 10283028269.3561                   WEL =     4482269.8659     WEL_0           
                 DRN = 36776266500.5721                   DRN =    16411778.3066     DRN_0           
                 RCH =           0.0000                   RCH =           0.0000     RCH_0           

           TOTAL OUT = 62982794026.7259             TOTAL OUT =    40397204.8799

            IN - OUT =       13511.0322              IN - OUT =      -5.0347E-02

 PERCENT DISCREPANCY =           0.00     PERCENT DISCREPANCY =          -0.00




         TIME SUMMARY AT END OF TIME STEP    1 IN STRESS PERIOD 1012
                          TIME STEP LENGTH =    1.00000    
                        STRESS PERIOD TIME =    1.00000    
                     TOTAL SIMULATION TIME =    1012.00    

end timestep


start timestep kper="1013" kstp="1" mode="normal"


 OUTPUT CONTROL FOR STRESS PERIOD 1013 IS REPEATED USING SETTINGS FROM A PREVIOUS STRESS PERIOD.


 STRESS PERIOD 1013 IS TRANSIENT


 REUSING WELS FROM LAST STRESS PERIOD

 REUSING DRNS FROM LAST STRESS PERIOD

 REUSING RCHS FROM LAST STRESS PERIOD


  VOLUME BUDGET FOR ENTIRE MODEL AT END OF TIME STEP    1, STRESS PERIOD1013
  ---------------------------------------------------------------------------------------------------

     CUMULATIVE VOLUME      L**3       RATES FOR THIS TIME STEP      L**3/T          PACKAGE NAME    
     ------------------                 ------------------------                     ----------------

           IN:                                      IN:
           ---                                      ---
              STO-SS =           0.0000                STO-SS =           0.0000     STORAGE         
              STO-SY = 18880834114.4033                STO-SY =     9659001.5916     STORAGE         
                 WEL =           0.0000                   WEL =           0.0000     WEL_0           
                 DRN =           0.0000                   DRN =           0.0000     DRN_0           
                 RCH = 44135057658.1301                   RCH =    23425233.1838     RCH_0           

            TOTAL IN = 63015891772.5335              TOTAL IN =    33084234.7754

          OUT:                                     OUT:
          ----                                     ----
              STO-SS =           0.0000                STO-SS =           0.0000     STORAGE         
              STO-SY = 15938338026.3268                STO-SY =    14838769.5291     STORAGE         
                 WEL = 10285689629.6514                   WEL =     2661360.2952     WEL_0           
                 DRN = 36791850597.7545                   DRN =    15584097.1824     DRN_0           
                 RCH =           0.0000                   RCH =           0.0000     RCH_0           

           TOTAL OUT = 63015878253.7327             TOTAL OUT =    33084227.0068

            IN - OUT =       13518.8007              IN - OUT =           7.7686

 PERCENT DISCREPANCY =           0.00     PERCENT DISCREPANCY =           0.00




         TIME SUMMARY AT END OF TIME STEP    1 IN STRESS PERIOD 1013
                          TIME STEP LENGTH =    1.00000    
                        STRESS PERIOD TIME =    1.00000    
                     TOTAL SIMULATION TIME =    1013.00    

end timestep


start timestep kper="1014" kstp="1" mode="normal"


 OUTPUT CONTROL FOR STRESS PERIOD 1014 IS REPEATED USING SETTINGS FROM A PREVIOUS STRESS PERIOD.


 STRESS PERIOD 1014 IS TRANSIENT


 REUSING WELS FROM LAST STRESS PERIOD

 REUSING DRNS FROM LAST STRESS PERIOD

 REUSING RCHS FROM LAST STRESS PERIOD


  VOLUME BUDGET FOR ENTIRE MODEL AT END OF TIME STEP    1, STRESS PERIOD1014
  ---------------------------------------------------------------------------------------------------

     CUMULATIVE VOLUME      L**3       RATES FOR THIS TIME STEP      L**3/T          PACKAGE NAME    
     ------------------                 ------------------------                     ----------------

           IN:                                      IN:
           ---                                      ---
              STO-SS =           0.0000                STO-SS =           0.0000     STORAGE         
              STO-SY = 18893028870.0428                STO-SY =    12194755.6395     STORAGE         
                 WEL =           0.0000                   WEL =           0.0000     WEL_0           
                 DRN =           0.0000                   DRN =           0.0000     DRN_0           
                 RCH = 44142303039.6496                   RCH =     7245381.5195     RCH_0           

            TOTAL IN = 63035331909.6924              TOTAL IN =    19440137.1590

          OUT:                                     OUT:
          ----                                     ----
              STO-SS =           0.0000                STO-SS =           0.0000     STORAGE         
              STO-SY = 15942080663.2561                STO-SY =     3742636.9292     STORAGE         
                 WEL = 10287685484.7290                   WEL =     1995855.0776     WEL_0           
                 DRN = 36805552236.0368                   DRN =    13701638.2823     DRN_0           
                 RCH =           0.0000                   RCH =           0.0000     RCH_0           

           TOTAL OUT = 63035318384.0219             TOTAL OUT =    19440130.2892

            IN - OUT =       13525.6705              IN - OUT =           6.8698

 PERCENT DISCREPANCY =           0.00     PERCENT DISCREPANCY =           0.00




         TIME SUMMARY AT END OF TIME STEP    1 IN STRESS PERIOD 1014
                          TIME STEP LENGTH =    1.00000    
                        STRESS PERIOD TIME =    1.00000    
                     TOTAL SIMULATION TIME =    1014.00    

end timestep


start timestep kper="1015" kstp="1" mode="normal"


 OUTPUT CONTROL FOR STRESS PERIOD 1015 IS REPEATED USING SETTINGS FROM A PREVIOUS STRESS PERIOD.


 STRESS PERIOD 1015 IS TRANSIENT


 REUSING WELS FROM LAST STRESS PERIOD

 REUSING DRNS FROM LAST STRESS PERIOD

 REUSING RCHS FROM LAST STRESS PERIOD


  VOLUME BUDGET FOR ENTIRE MODEL AT END OF TIME STEP    1, STRESS PERIOD1015
  ---------------------------------------------------------------------------------------------------

     CUMULATIVE VOLUME      L**3       RATES FOR THIS TIME STEP      L**3/T          PACKAGE NAME    
     ------------------                 ------------------------                     ----------------

           IN:                                      IN:
           ---                                      ---
              STO-SS =           0.0000                STO-SS =           0.0000     STORAGE         
              STO-SY = 18905361508.3239                STO-SY =    12332638.2811     STORAGE         
                 WEL =           0.0000                   WEL =           0.0000     WEL_0           
                 DRN =           0.0000                   DRN =           0.0000     DRN_0           
                 RCH = 44157254921.8741                   RCH =    14951882.2245     RCH_0           

            TOTAL IN = 63062616430.1980              TOTAL IN =    27284520.5056

          OUT:                                     OUT:
          ----                                     ----
              STO-SS =           0.0000                STO-SS =           0.0000     STORAGE         
              STO-SY = 15947746549.2326                STO-SY =     5665885.9765     STORAGE         
                 WEL = 10293650496.1285                   WEL =     5965011.3995     WEL_0           
                 DRN = 36821205861.6451                   DRN =    15653625.6082     DRN_0           
                 RCH =           0.0000                   RCH =           0.0000     RCH_0           

           TOTAL OUT = 63062602907.0062             TOTAL OUT =    27284522.9843

            IN - OUT =       13523.1918              IN - OUT =          -2.4787

 PERCENT DISCREPANCY =           0.00     PERCENT DISCREPANCY =          -0.00




         TIME SUMMARY AT END OF TIME STEP    1 IN STRESS PERIOD 1015
                          TIME STEP LENGTH =    1.00000    
                        STRESS PERIOD TIME =    1.00000    
                     TOTAL SIMULATION TIME =    1015.00    

end timestep


start timestep kper="1016" kstp="1" mode="normal"


 OUTPUT CONTROL FOR STRESS PERIOD 1016 IS REPEATED USING SETTINGS FROM A PREVIOUS STRESS PERIOD.


 STRESS PERIOD 1016 IS TRANSIENT


 REUSING WELS FROM LAST STRESS PERIOD

 REUSING DRNS FROM LAST STRESS PERIOD

 REUSING RCHS FROM LAST STRESS PERIOD


  VOLUME BUDGET FOR ENTIRE MODEL AT END OF TIME STEP    1, STRESS PERIOD1016
  ---------------------------------------------------------------------------------------------------

     CUMULATIVE VOLUME      L**3       RATES FOR THIS TIME STEP      L**3/T          PACKAGE NAME    
     ------------------                 ------------------------                     ----------------

           IN:                                      IN:
           ---                                      ---
              STO-SS =           0.0000                STO-SS =           0.0000     STORAGE         
              STO-SY = 18915220588.2731                STO-SY =     9859079.9492     STORAGE         
                 WEL =           0.0000                   WEL =           0.0000     WEL_0           
                 DRN =           0.0000                   DRN =           0.0000     DRN_0           
                 RCH = 44176794088.8302                   RCH =    19539166.9562     RCH_0           

            TOTAL IN = 63092014677.1033              TOTAL IN =    29398246.9053

          OUT:                                     OUT:
          ----                                     ----
              STO-SS =           0.0000                STO-SS =           0.0000     STORAGE         
              STO-SY = 15960069541.6236                STO-SY =    12322992.3911     STORAGE         
                 WEL = 10296508385.3060                   WEL =     2857889.1775     WEL_0           
                 DRN = 36835423226.8539                   DRN =    14217365.2088     DRN_0           
                 RCH =           0.0000                   RCH =           0.0000     RCH_0           

           TOTAL OUT = 63092001153.7836             TOTAL OUT =    29398246.7774

            IN - OUT =       13523.3197              IN - OUT =           0.1279

 PERCENT DISCREPANCY =           0.00     PERCENT DISCREPANCY =           0.00




         TIME SUMMARY AT END OF TIME STEP    1 IN STRESS PERIOD 1016
                          TIME STEP LENGTH =    1.00000    
                        STRESS PERIOD TIME =    1.00000    
                     TOTAL SIMULATION TIME =    1016.00    

end timestep


start timestep kper="1017" kstp="1" mode="normal"


 OUTPUT CONTROL FOR STRESS PERIOD 1017 IS REPEATED USING SETTINGS FROM A PREVIOUS STRESS PERIOD.


 STRESS PERIOD 1017 IS TRANSIENT


 REUSING WELS FROM LAST STRESS PERIOD

 REUSING DRNS FROM LAST STRESS PERIOD

 REUSING RCHS FROM LAST STRESS PERIOD


  VOLUME BUDGET FOR ENTIRE MODEL AT END OF TIME STEP    1, STRESS PERIOD1017
  ---------------------------------------------------------------------------------------------------

     CUMULATIVE VOLUME      L**3       RATES FOR THIS TIME STEP      L**3/T          PACKAGE NAME    
     ------------------                 ------------------------                     ----------------

           IN:                                      IN:
           ---                                      ---
              STO-SS =           0.0000                STO-SS =           0.0000     STORAGE         
              STO-SY = 18926740476.2994                STO-SY =    11519888.0263     STORAGE         
                 WEL =           0.0000                   WEL =           0.0000     WEL_0           
                 DRN =           0.0000                   DRN =           0.0000     DRN_0           
                 RCH = 44187938174.5217                   RCH =    11144085.6915     RCH_0           

            TOTAL IN = 63114678650.8211              TOTAL IN =    22663973.7178

          OUT:                                     OUT:
          ----                                     ----
              STO-SS =           0.0000                STO-SS =           0.0000     STORAGE         
              STO-SY = 15964344354.7190                STO-SY =     4274813.0954     STORAGE         
                 WEL = 10299997897.5106                   WEL =     3489512.2046     WEL_0           
                 DRN = 36850322841.3977                   DRN =    14899614.5438     DRN_0           
                 RCH =           0.0000                   RCH =           0.0000     RCH_0           

           TOTAL OUT = 63114665093.6273             TOTAL OUT =    22663939.8437

            IN - OUT =       13557.1938              IN - OUT =          33.8740

 PERCENT DISCREPANCY =           0.00     PERCENT DISCREPANCY =           0.00




         TIME SUMMARY AT END OF TIME STEP    1 IN STRESS PERIOD 1017
                          TIME STEP LENGTH =    1.00000    
                        STRESS PERIOD TIME =    1.00000    
                     TOTAL SIMULATION TIME =    1017.00    

end timestep


start timestep kper="1018" kstp="1" mode="normal"


 OUTPUT CONTROL FOR STRESS PERIOD 1018 IS REPEATED USING SETTINGS FROM A PREVIOUS STRESS PERIOD.


 STRESS PERIOD 1018 IS TRANSIENT


 REUSING WELS FROM LAST STRESS PERIOD

 REUSING DRNS FROM LAST STRESS PERIOD

 REUSING RCHS FROM LAST STRESS PERIOD


  VOLUME BUDGET FOR ENTIRE MODEL AT END OF TIME STEP    1, STRESS PERIOD1018
  ---------------------------------------------------------------------------------------------------

     CUMULATIVE VOLUME      L**3       RATES FOR THIS TIME STEP      L**3/T          PACKAGE NAME    
     ------------------                 ------------------------                     ----------------

           IN:                                      IN:
           ---                                      ---
              STO-SS =           0.0000                STO-SS =           0.0000     STORAGE         
              STO-SY = 18941520387.5267                STO-SY =    14779911.2274     STORAGE         
                 WEL =           0.0000                   WEL =           0.0000     WEL_0           
                 DRN =           0.0000                   DRN =           0.0000     DRN_0           
                 RCH = 44197171762.2869                   RCH =     9233587.7652     RCH_0           

            TOTAL IN = 63138692149.8137              TOTAL IN =    24013498.9925

          OUT:                                     OUT:
          ----                                     ----
              STO-SS =           0.0000                STO-SS =           0.0000     STORAGE         
              STO-SY = 15967615644.4719                STO-SY =     3271289.7528     STORAGE         
                 WEL = 10307369613.6931                   WEL =     7371716.1824     WEL_0           
                 DRN = 36863693435.3118                   DRN =    13370593.9142     DRN_0           
                 RCH =           0.0000                   RCH =           0.0000     RCH_0           

           TOTAL OUT = 63138678693.4768             TOTAL OUT =    24013599.8494

            IN - OUT =       13456.3369              IN - OUT =        -100.8569

 PERCENT DISCREPANCY =           0.00     PERCENT DISCREPANCY =          -0.00




         TIME SUMMARY AT END OF TIME STEP    1 IN STRESS PERIOD 1018
                          TIME STEP LENGTH =    1.00000    
                        STRESS PERIOD TIME =    1.00000    
                     TOTAL SIMULATION TIME =    1018.00    

end timestep


start timestep kper="1019" kstp="1" mode="normal"


 OUTPUT CONTROL FOR STRESS PERIOD 1019 IS REPEATED USING SETTINGS FROM A PREVIOUS STRESS PERIOD.


 STRESS PERIOD 1019 IS TRANSIENT


 REUSING WELS FROM LAST STRESS PERIOD

 REUSING DRNS FROM LAST STRESS PERIOD

 REUSING RCHS FROM LAST STRESS PERIOD


  VOLUME BUDGET FOR ENTIRE MODEL AT END OF TIME STEP    1, STRESS PERIOD1019
  ---------------------------------------------------------------------------------------------------

     CUMULATIVE VOLUME      L**3       RATES FOR THIS TIME STEP      L**3/T          PACKAGE NAME    
     ------------------                 ------------------------                     ----------------

           IN:                                      IN:
           ---                                      ---
              STO-SS =           0.0000                STO-SS =           0.0000     STORAGE         
              STO-SY = 18955326076.0981                STO-SY =    13805688.5714     STORAGE         
                 WEL =           0.0000                   WEL =           0.0000     WEL_0           
                 DRN =           0.0000                   DRN =           0.0000     DRN_0           
                 RCH = 44207675355.1139                   RCH =    10503592.8269     RCH_0           

            TOTAL IN = 63163001431.2120              TOTAL IN =    24309281.3983

          OUT:                                     OUT:
          ----                                     ----
              STO-SS =           0.0000                STO-SS =           0.0000     STORAGE         
              STO-SY = 15970674538.4822                STO-SY =     3058894.0104     STORAGE         
                 WEL = 10313888271.4626                   WEL =     6518657.7695     WEL_0           
                 DRN = 36878425165.7850                   DRN =    14731730.4732     DRN_0           
                 RCH =           0.0000                   RCH =           0.0000     RCH_0           

           TOTAL OUT = 63162987975.7298             TOTAL OUT =    24309282.2530

            IN - OUT =       13455.4822              IN - OUT =          -0.8547

 PERCENT DISCREPANCY =           0.00     PERCENT DISCREPANCY =          -0.00




         TIME SUMMARY AT END OF TIME STEP    1 IN STRESS PERIOD 1019
                          TIME STEP LENGTH =    1.00000    
                        STRESS PERIOD TIME =    1.00000    
                     TOTAL SIMULATION TIME =    1019.00    

end timestep


start timestep kper="1020" kstp="1" mode="normal"


 OUTPUT CONTROL FOR STRESS PERIOD 1020 IS REPEATED USING SETTINGS FROM A PREVIOUS STRESS PERIOD.


 STRESS PERIOD 1020 IS TRANSIENT


 REUSING WELS FROM LAST STRESS PERIOD

 REUSING DRNS FROM LAST STRESS PERIOD

 REUSING RCHS FROM LAST STRESS PERIOD


  VOLUME BUDGET FOR ENTIRE MODEL AT END OF TIME STEP    1, STRESS PERIOD1020
  ---------------------------------------------------------------------------------------------------

     CUMULATIVE VOLUME      L**3       RATES FOR THIS TIME STEP      L**3/T          PACKAGE NAME    
     ------------------                 ------------------------                     ----------------

           IN:                                      IN:
           ---                                      ---
              STO-SS =           0.0000                STO-SS =           0.0000     STORAGE         
              STO-SY = 18970625094.4861                STO-SY =    15299018.3880     STORAGE         
                 WEL =           0.0000                   WEL =           0.0000     WEL_0           
                 DRN =           0.0000                   DRN =           0.0000     DRN_0           
                 RCH = 44216460061.9167                   RCH =     8784706.8029     RCH_0           

            TOTAL IN = 63187085156.4029              TOTAL IN =    24083725.1909

          OUT:                                     OUT:
          ----                                     ----
              STO-SS =           0.0000                STO-SS =           0.0000     STORAGE         
              STO-SY = 15973503353.7145                STO-SY =     2828815.2323     STORAGE         
                 WEL = 10321963419.4783                   WEL =     8075148.0157     WEL_0           
                 DRN = 36891604958.8972                   DRN =    13179793.1122     DRN_0           
                 RCH =           0.0000                   RCH =           0.0000     RCH_0           

           TOTAL OUT = 63187071732.0900             TOTAL OUT =    24083756.3602

            IN - OUT =       13424.3129              IN - OUT =         -31.1693

 PERCENT DISCREPANCY =           0.00     PERCENT DISCREPANCY =          -0.00




         TIME SUMMARY AT END OF TIME STEP    1 IN STRESS PERIOD 1020
                          TIME STEP LENGTH =    1.00000    
                        STRESS PERIOD TIME =    1.00000    
                     TOTAL SIMULATION TIME =    1020.00    

end timestep


start timestep kper="1021" kstp="1" mode="normal"


 OUTPUT CONTROL FOR STRESS PERIOD 1021 IS REPEATED USING SETTINGS FROM A PREVIOUS STRESS PERIOD.


 STRESS PERIOD 1021 IS TRANSIENT


 REUSING WELS FROM LAST STRESS PERIOD

 REUSING DRNS FROM LAST STRESS PERIOD

 REUSING RCHS FROM LAST STRESS PERIOD


  VOLUME BUDGET FOR ENTIRE MODEL AT END OF TIME STEP    1, STRESS PERIOD1021
  ---------------------------------------------------------------------------------------------------

     CUMULATIVE VOLUME      L**3       RATES FOR THIS TIME STEP      L**3/T          PACKAGE NAME    
     ------------------                 ------------------------                     ----------------

           IN:                                      IN:
           ---                                      ---
              STO-SS =           0.0000                STO-SS =           0.0000     STORAGE         
              STO-SY = 18983406167.5713                STO-SY =    12781073.0852     STORAGE         
                 WEL =           0.0000                   WEL =           0.0000     WEL_0           
                 DRN =           0.0000                   DRN =           0.0000     DRN_0           
                 RCH = 44223671024.1633                   RCH =     7210962.2465     RCH_0           

            TOTAL IN = 63207077191.7346              TOTAL IN =    19992035.3317

          OUT:                                     OUT:
          ----                                     ----
              STO-SS =           0.0000                STO-SS =           0.0000     STORAGE         
              STO-SY = 15976067396.4936                STO-SY =     2564042.7790     STORAGE         
                 WEL = 10325114986.4282                   WEL =     3151566.9499     WEL_0           
                 DRN = 36905881384.4590                   DRN =    14276425.5618     DRN_0           
                 RCH =           0.0000                   RCH =           0.0000     RCH_0           

           TOTAL OUT = 63207063767.3808             TOTAL OUT =    19992035.2907

            IN - OUT =       13424.3538              IN - OUT =       4.0970E-02

 PERCENT DISCREPANCY =           0.00     PERCENT DISCREPANCY =           0.00




         TIME SUMMARY AT END OF TIME STEP    1 IN STRESS PERIOD 1021
                          TIME STEP LENGTH =    1.00000    
                        STRESS PERIOD TIME =    1.00000    
                     TOTAL SIMULATION TIME =    1021.00    

end timestep


start timestep kper="1022" kstp="1" mode="normal"


 OUTPUT CONTROL FOR STRESS PERIOD 1022 IS REPEATED USING SETTINGS FROM A PREVIOUS STRESS PERIOD.


 STRESS PERIOD 1022 IS TRANSIENT


 REUSING WELS FROM LAST STRESS PERIOD

 REUSING DRNS FROM LAST STRESS PERIOD

 REUSING RCHS FROM LAST STRESS PERIOD


  VOLUME BUDGET FOR ENTIRE MODEL AT END OF TIME STEP    1, STRESS PERIOD1022
  ---------------------------------------------------------------------------------------------------

     CUMULATIVE VOLUME      L**3       RATES FOR THIS TIME STEP      L**3/T          PACKAGE NAME    
     ------------------                 ------------------------                     ----------------

           IN:                                      IN:
           ---                                      ---
              STO-SS =           0.0000                STO-SS =           0.0000     STORAGE         
              STO-SY = 18996789494.4615                STO-SY =    13383326.8902     STORAGE         
                 WEL =           0.0000                   WEL =           0.0000     WEL_0           
                 DRN =           0.0000                   DRN =           0.0000     DRN_0           
                 RCH = 44234269665.1853                   RCH =    10598641.0221     RCH_0           

            TOTAL IN = 63231059159.6469              TOTAL IN =    23981967.9123

          OUT:                                     OUT:
          ----                                     ----
              STO-SS =           0.0000                STO-SS =           0.0000     STORAGE         
              STO-SY = 15979858550.6805                STO-SY =     3791154.1870     STORAGE         
                 WEL = 10331497289.6466                   WEL =     6382303.2184     WEL_0           
                 DRN = 36919689894.8392                   DRN =    13808510.3802     DRN_0           
                 RCH =           0.0000                   RCH =           0.0000     RCH_0           

           TOTAL OUT = 63231045735.1663             TOTAL OUT =    23981967.7855

            IN - OUT =       13424.4805              IN - OUT =           0.1267

 PERCENT DISCREPANCY =           0.00     PERCENT DISCREPANCY =           0.00




         TIME SUMMARY AT END OF TIME STEP    1 IN STRESS PERIOD 1022
                          TIME STEP LENGTH =    1.00000    
                        STRESS PERIOD TIME =    1.00000    
                     TOTAL SIMULATION TIME =    1022.00    

end timestep


start timestep kper="1023" kstp="1" mode="normal"


 OUTPUT CONTROL FOR STRESS PERIOD 1023 IS REPEATED USING SETTINGS FROM A PREVIOUS STRESS PERIOD.


 STRESS PERIOD 1023 IS TRANSIENT


 REUSING WELS FROM LAST STRESS PERIOD

 REUSING DRNS FROM LAST STRESS PERIOD

 REUSING RCHS FROM LAST STRESS PERIOD


  VOLUME BUDGET FOR ENTIRE MODEL AT END OF TIME STEP    1, STRESS PERIOD1023
  ---------------------------------------------------------------------------------------------------

     CUMULATIVE VOLUME      L**3       RATES FOR THIS TIME STEP      L**3/T          PACKAGE NAME    
     ------------------                 ------------------------                     ----------------

           IN:                                      IN:
           ---                                      ---
              STO-SS =           0.0000                STO-SS =           0.0000     STORAGE         
              STO-SY = 19012852311.9857                STO-SY =    16062817.5242     STORAGE         
                 WEL =           0.0000                   WEL =           0.0000     WEL_0           
                 DRN =           0.0000                   DRN =           0.0000     DRN_0           
                 RCH = 44246888626.8726                   RCH =    12618961.6872     RCH_0           

            TOTAL IN = 63259740938.8582              TOTAL IN =    28681779.2114

          OUT:                                     OUT:
          ----                                     ----
              STO-SS =           0.0000                STO-SS =           0.0000     STORAGE         
              STO-SY = 15983203581.1205                STO-SY =     3345030.4399     STORAGE         
                 WEL = 10342402611.7190                   WEL =    10905322.0724     WEL_0           
                 DRN = 36934121327.1627                   DRN =    14431432.3235     DRN_0           
                 RCH =           0.0000                   RCH =           0.0000     RCH_0           

           TOTAL OUT = 63259727520.0022             TOTAL OUT =    28681784.8359

            IN - OUT =       13418.8561              IN - OUT =          -5.6245

 PERCENT DISCREPANCY =           0.00     PERCENT DISCREPANCY =          -0.00




         TIME SUMMARY AT END OF TIME STEP    1 IN STRESS PERIOD 1023
                          TIME STEP LENGTH =    1.00000    
                        STRESS PERIOD TIME =    1.00000    
                     TOTAL SIMULATION TIME =    1023.00    

end timestep


start timestep kper="1024" kstp="1" mode="normal"


 OUTPUT CONTROL FOR STRESS PERIOD 1024 IS REPEATED USING SETTINGS FROM A PREVIOUS STRESS PERIOD.


 STRESS PERIOD 1024 IS TRANSIENT


 REUSING WELS FROM LAST STRESS PERIOD

 REUSING DRNS FROM LAST STRESS PERIOD

 REUSING RCHS FROM LAST STRESS PERIOD


  VOLUME BUDGET FOR ENTIRE MODEL AT END OF TIME STEP    1, STRESS PERIOD1024
  ---------------------------------------------------------------------------------------------------

     CUMULATIVE VOLUME      L**3       RATES FOR THIS TIME STEP      L**3/T          PACKAGE NAME    
     ------------------                 ------------------------                     ----------------

           IN:                                      IN:
           ---                                      ---
              STO-SS =           0.0000                STO-SS =           0.0000     STORAGE         
              STO-SY = 19027046585.8889                STO-SY =    14194273.9032     STORAGE         
                 WEL =           0.0000                   WEL =           0.0000     WEL_0           
                 DRN =           0.0000                   DRN =           0.0000     DRN_0           
                 RCH = 44255946577.0651                   RCH =     9057950.1925     RCH_0           

            TOTAL IN = 63282993162.9540              TOTAL IN =    23252224.0958

          OUT:                                     OUT:
          ----                                     ----
              STO-SS =           0.0000                STO-SS =           0.0000     STORAGE         
              STO-SY = 15986065874.9924                STO-SY =     2862293.8719     STORAGE         
                 WEL = 10349804583.7986                   WEL =     7401972.0796     WEL_0           
                 DRN = 36947109257.1944                   DRN =    12987930.0317     DRN_0           
                 RCH =           0.0000                   RCH =           0.0000     RCH_0           

           TOTAL OUT = 63282979715.9854             TOTAL OUT =    23252195.9832

            IN - OUT =       13446.9687              IN - OUT =          28.1126

 PERCENT DISCREPANCY =           0.00     PERCENT DISCREPANCY =           0.00




         TIME SUMMARY AT END OF TIME STEP    1 IN STRESS PERIOD 1024
                          TIME STEP LENGTH =    1.00000    
                        STRESS PERIOD TIME =    1.00000    
                     TOTAL SIMULATION TIME =    1024.00    

end timestep


start timestep kper="1025" kstp="1" mode="normal"


 OUTPUT CONTROL FOR STRESS PERIOD 1025 IS REPEATED USING SETTINGS FROM A PREVIOUS STRESS PERIOD.


 STRESS PERIOD 1025 IS TRANSIENT


 REUSING WELS FROM LAST STRESS PERIOD

 REUSING DRNS FROM LAST STRESS PERIOD

 REUSING RCHS FROM LAST STRESS PERIOD


  VOLUME BUDGET FOR ENTIRE MODEL AT END OF TIME STEP    1, STRESS PERIOD1025
  ---------------------------------------------------------------------------------------------------

     CUMULATIVE VOLUME      L**3       RATES FOR THIS TIME STEP      L**3/T          PACKAGE NAME    
     ------------------                 ------------------------                     ----------------

           IN:                                      IN:
           ---                                      ---
              STO-SS =           0.0000                STO-SS =           0.0000     STORAGE         
              STO-SY = 19048362152.2789                STO-SY =    21315566.3901     STORAGE         
                 WEL =           0.0000                   WEL =           0.0000     WEL_0           
                 DRN =           0.0000                   DRN =           0.0000     DRN_0           
                 RCH = 44274580853.1412                   RCH =    18634276.0761     RCH_0           

            TOTAL IN = 63322943005.4201              TOTAL IN =    39949842.4661

          OUT:                                     OUT:
          ----                                     ----
              STO-SS =           0.0000                STO-SS =           0.0000     STORAGE         
              STO-SY = 15990969869.4872                STO-SY =     4903994.4948     STORAGE         
                 WEL = 10369733371.3339                   WEL =    19928787.5353     WEL_0           
                 DRN = 36962226297.6752                   DRN =    15117040.4808     DRN_0           
                 RCH =           0.0000                   RCH =           0.0000     RCH_0           

           TOTAL OUT = 63322929538.4963             TOTAL OUT =    39949822.5110

            IN - OUT =       13466.9238              IN - OUT =          19.9552

 PERCENT DISCREPANCY =           0.00     PERCENT DISCREPANCY =           0.00




         TIME SUMMARY AT END OF TIME STEP    1 IN STRESS PERIOD 1025
                          TIME STEP LENGTH =    1.00000    
                        STRESS PERIOD TIME =    1.00000    
                     TOTAL SIMULATION TIME =    1025.00    

end timestep


start timestep kper="1026" kstp="1" mode="normal"


 OUTPUT CONTROL FOR STRESS PERIOD 1026 IS REPEATED USING SETTINGS FROM A PREVIOUS STRESS PERIOD.


 STRESS PERIOD 1026 IS TRANSIENT


 REUSING WELS FROM LAST STRESS PERIOD

 REUSING DRNS FROM LAST STRESS PERIOD

 REUSING RCHS FROM LAST STRESS PERIOD


  VOLUME BUDGET FOR ENTIRE MODEL AT END OF TIME STEP    1, STRESS PERIOD1026
  ---------------------------------------------------------------------------------------------------

     CUMULATIVE VOLUME      L**3       RATES FOR THIS TIME STEP      L**3/T          PACKAGE NAME    
     ------------------                 ------------------------                     ----------------

           IN:                                      IN:
           ---                                      ---
              STO-SS =           0.0000                STO-SS =           0.0000     STORAGE         
              STO-SY = 19066066179.6368                STO-SY =    17704027.3579     STORAGE         
                 WEL =           0.0000                   WEL =           0.0000     WEL_0           
                 DRN =           0.0000                   DRN =           0.0000     DRN_0           
                 RCH = 44286781371.2263                   RCH =    12200518.0851     RCH_0           

            TOTAL IN = 63352847550.8632              TOTAL IN =    29904545.4430

          OUT:                                     OUT:
          ----                                     ----
              STO-SS =           0.0000                STO-SS =           0.0000     STORAGE         
              STO-SY = 15994173842.3007                STO-SY =     3203972.8135     STORAGE         
                 WEL = 10383417574.9730                   WEL =    13684203.6391     WEL_0           
                 DRN = 36975242643.6386                   DRN =    13016345.9634     DRN_0           
                 RCH =           0.0000                   RCH =           0.0000     RCH_0           

           TOTAL OUT = 63352834060.9123             TOTAL OUT =    29904522.4160

            IN - OUT =       13489.9508              IN - OUT =          23.0270

 PERCENT DISCREPANCY =           0.00     PERCENT DISCREPANCY =           0.00




         TIME SUMMARY AT END OF TIME STEP    1 IN STRESS PERIOD 1026
                          TIME STEP LENGTH =    1.00000    
                        STRESS PERIOD TIME =    1.00000    
                     TOTAL SIMULATION TIME =    1026.00    

end timestep


start timestep kper="1027" kstp="1" mode="normal"


 OUTPUT CONTROL FOR STRESS PERIOD 1027 IS REPEATED USING SETTINGS FROM A PREVIOUS STRESS PERIOD.


 STRESS PERIOD 1027 IS TRANSIENT


 REUSING WELS FROM LAST STRESS PERIOD

 REUSING DRNS FROM LAST STRESS PERIOD

 REUSING RCHS FROM LAST STRESS PERIOD


  VOLUME BUDGET FOR ENTIRE MODEL AT END OF TIME STEP    1, STRESS PERIOD1027
  ---------------------------------------------------------------------------------------------------

     CUMULATIVE VOLUME      L**3       RATES FOR THIS TIME STEP      L**3/T          PACKAGE NAME    
     ------------------                 ------------------------                     ----------------

           IN:                                      IN:
           ---                                      ---
              STO-SS =           0.0000                STO-SS =           0.0000     STORAGE         
              STO-SY = 19082486149.3812                STO-SY =    16419969.7444     STORAGE         
                 WEL =           0.0000                   WEL =           0.0000     WEL_0           
                 DRN =           0.0000                   DRN =           0.0000     DRN_0           
                 RCH = 44300539873.1355                   RCH =    13758501.9091     RCH_0           

            TOTAL IN = 63383026022.5167              TOTAL IN =    30178471.6536

          OUT:                                     OUT:
          ----                                     ----
              STO-SS =           0.0000                STO-SS =           0.0000     STORAGE         
              STO-SY = 15997788587.4831                STO-SY =     3614745.1824     STORAGE         
                 WEL = 10395492651.1523                   WEL =    12075076.1792     WEL_0           
                 DRN = 36989731231.7469                   DRN =    14488588.1083     DRN_0           
                 RCH =           0.0000                   RCH =           0.0000     RCH_0           

           TOTAL OUT = 63383012470.3822             TOTAL OUT =    30178409.4699

            IN - OUT =       13552.1345              IN - OUT =          62.1836

 PERCENT DISCREPANCY =           0.00     PERCENT DISCREPANCY =           0.00




         TIME SUMMARY AT END OF TIME STEP    1 IN STRESS PERIOD 1027
                          TIME STEP LENGTH =    1.00000    
                        STRESS PERIOD TIME =    1.00000    
                     TOTAL SIMULATION TIME =    1027.00    

end timestep


start timestep kper="1028" kstp="1" mode="normal"


 OUTPUT CONTROL FOR STRESS PERIOD 1028 IS REPEATED USING SETTINGS FROM A PREVIOUS STRESS PERIOD.


 STRESS PERIOD 1028 IS TRANSIENT


 REUSING WELS FROM LAST STRESS PERIOD

 REUSING DRNS FROM LAST STRESS PERIOD

 REUSING RCHS FROM LAST STRESS PERIOD


  VOLUME BUDGET FOR ENTIRE MODEL AT END OF TIME STEP    1, STRESS PERIOD1028
  ---------------------------------------------------------------------------------------------------

     CUMULATIVE VOLUME      L**3       RATES FOR THIS TIME STEP      L**3/T          PACKAGE NAME    
     ------------------                 ------------------------                     ----------------

           IN:                                      IN:
           ---                                      ---
              STO-SS =           0.0000                STO-SS =           0.0000     STORAGE         
              STO-SY = 19098775038.1981                STO-SY =    16288888.8169     STORAGE         
                 WEL =           0.0000                   WEL =           0.0000     WEL_0           
                 DRN =           0.0000                   DRN =           0.0000     DRN_0           
                 RCH = 44311670654.6861                   RCH =    11130781.5507     RCH_0           

            TOTAL IN = 63410445692.8843              TOTAL IN =    27419670.3676

          OUT:                                     OUT:
          ----                                     ----
              STO-SS =           0.0000                STO-SS =           0.0000     STORAGE         
              STO-SY = 16001160740.2996                STO-SY =     3372152.8165     STORAGE         
                 WEL = 10406963745.1784                   WEL =    11471094.0261     WEL_0           
                 DRN = 37002307657.2039                   DRN =    12576425.4570     DRN_0           
                 RCH =           0.0000                   RCH =           0.0000     RCH_0           

           TOTAL OUT = 63410432142.6819             TOTAL OUT =    27419672.2997

            IN - OUT =       13550.2024              IN - OUT =          -1.9321

 PERCENT DISCREPANCY =           0.00     PERCENT DISCREPANCY =          -0.00




         TIME SUMMARY AT END OF TIME STEP    1 IN STRESS PERIOD 1028
                          TIME STEP LENGTH =    1.00000    
                        STRESS PERIOD TIME =    1.00000    
                     TOTAL SIMULATION TIME =    1028.00    

end timestep


start timestep kper="1029" kstp="1" mode="normal"


 OUTPUT CONTROL FOR STRESS PERIOD 1029 IS REPEATED USING SETTINGS FROM A PREVIOUS STRESS PERIOD.


 STRESS PERIOD 1029 IS TRANSIENT


 REUSING WELS FROM LAST STRESS PERIOD

 REUSING DRNS FROM LAST STRESS PERIOD

 REUSING RCHS FROM LAST STRESS PERIOD


  VOLUME BUDGET FOR ENTIRE MODEL AT END OF TIME STEP    1, STRESS PERIOD1029
  ---------------------------------------------------------------------------------------------------

     CUMULATIVE VOLUME      L**3       RATES FOR THIS TIME STEP      L**3/T          PACKAGE NAME    
     ------------------                 ------------------------                     ----------------

           IN:                                      IN:
           ---                                      ---
              STO-SS =           0.0000                STO-SS =           0.0000     STORAGE         
              STO-SY = 19113884338.4026                STO-SY =    15109300.2045     STORAGE         
                 WEL =           0.0000                   WEL =           0.0000     WEL_0           
                 DRN =           0.0000                   DRN =           0.0000     DRN_0           
                 RCH = 44322596254.3371                   RCH =    10925599.6510     RCH_0           

            TOTAL IN = 63436480592.7397              TOTAL IN =    26034899.8555

          OUT:                                     OUT:
          ----                                     ----
              STO-SS =           0.0000                STO-SS =           0.0000     STORAGE         
              STO-SY = 16004092722.6497                STO-SY =     2931982.3501     STORAGE         
                 WEL = 10416575794.6194                   WEL =     9612049.4410     WEL_0           
                 DRN = 37015798500.9457                   DRN =    13490843.7418     DRN_0           
                 RCH =           0.0000                   RCH =           0.0000     RCH_0           

           TOTAL OUT = 63436467018.2148             TOTAL OUT =    26034875.5329

            IN - OUT =       13574.5250              IN - OUT =          24.3226

 PERCENT DISCREPANCY =           0.00     PERCENT DISCREPANCY =           0.00




         TIME SUMMARY AT END OF TIME STEP    1 IN STRESS PERIOD 1029
                          TIME STEP LENGTH =    1.00000    
                        STRESS PERIOD TIME =    1.00000    
                     TOTAL SIMULATION TIME =    1029.00    

end timestep


start timestep kper="1030" kstp="1" mode="normal"


 OUTPUT CONTROL FOR STRESS PERIOD 1030 IS REPEATED USING SETTINGS FROM A PREVIOUS STRESS PERIOD.


 STRESS PERIOD 1030 IS TRANSIENT


 REUSING WELS FROM LAST STRESS PERIOD

 REUSING DRNS FROM LAST STRESS PERIOD

 REUSING RCHS FROM LAST STRESS PERIOD


  VOLUME BUDGET FOR ENTIRE MODEL AT END OF TIME STEP    1, STRESS PERIOD1030
  ---------------------------------------------------------------------------------------------------

     CUMULATIVE VOLUME      L**3       RATES FOR THIS TIME STEP      L**3/T          PACKAGE NAME    
     ------------------                 ------------------------                     ----------------

           IN:                                      IN:
           ---                                      ---
              STO-SS =           0.0000                STO-SS =           0.0000     STORAGE         
              STO-SY = 19129240230.4301                STO-SY =    15355892.0275     STORAGE         
                 WEL =           0.0000                   WEL =           0.0000     WEL_0           
                 DRN =           0.0000                   DRN =           0.0000     DRN_0           
                 RCH = 44335128661.8120                   RCH =    12532407.4749     RCH_0           

            TOTAL IN = 63464368892.2421              TOTAL IN =    27888299.5023

          OUT:                                     OUT:
          ----                                     ----
              STO-SS =           0.0000                STO-SS =           0.0000     STORAGE         
              STO-SY = 16007656592.0689                STO-SY =     3563869.4192     STORAGE         
                 WEL = 10427959069.6932                   WEL =    11383275.0738     WEL_0           
                 DRN = 37028739659.2846                   DRN =    12941158.3390     DRN_0           
                 RCH =           0.0000                   RCH =           0.0000     RCH_0           

           TOTAL OUT = 63464355321.0467             TOTAL OUT =    27888302.8319

            IN - OUT =       13571.1954              IN - OUT =          -3.3296

 PERCENT DISCREPANCY =           0.00     PERCENT DISCREPANCY =          -0.00




         TIME SUMMARY AT END OF TIME STEP    1 IN STRESS PERIOD 1030
                          TIME STEP LENGTH =    1.00000    
                        STRESS PERIOD TIME =    1.00000    
                     TOTAL SIMULATION TIME =    1030.00    

end timestep


start timestep kper="1031" kstp="1" mode="normal"


 OUTPUT CONTROL FOR STRESS PERIOD 1031 IS REPEATED USING SETTINGS FROM A PREVIOUS STRESS PERIOD.


 STRESS PERIOD 1031 IS TRANSIENT


 REUSING WELS FROM LAST STRESS PERIOD

 REUSING DRNS FROM LAST STRESS PERIOD

 REUSING RCHS FROM LAST STRESS PERIOD


  VOLUME BUDGET FOR ENTIRE MODEL AT END OF TIME STEP    1, STRESS PERIOD1031
  ---------------------------------------------------------------------------------------------------

     CUMULATIVE VOLUME      L**3       RATES FOR THIS TIME STEP      L**3/T          PACKAGE NAME    
     ------------------                 ------------------------                     ----------------

           IN:                                      IN:
           ---                                      ---
              STO-SS =           0.0000                STO-SS =           0.0000     STORAGE         
              STO-SY = 19148656050.6617                STO-SY =    19415820.2316     STORAGE         
                 WEL =           0.0000                   WEL =           0.0000     WEL_0           
                 DRN =           0.0000                   DRN =           0.0000     DRN_0           
                 RCH = 44350468725.7255                   RCH =    15340063.9135     RCH_0           

            TOTAL IN = 63499124776.3872              TOTAL IN =    34755884.1451

          OUT:                                     OUT:
          ----                                     ----
              STO-SS =           0.0000                STO-SS =           0.0000     STORAGE         
              STO-SY = 16011215116.9860                STO-SY =     3558524.9171     STORAGE         
                 WEL = 10444920345.9644                   WEL =    16961276.2712     WEL_0           
                 DRN = 37042975726.5554                   DRN =    14236067.2708     DRN_0           
                 RCH =           0.0000                   RCH =           0.0000     RCH_0           

           TOTAL OUT = 63499111189.5058             TOTAL OUT =    34755868.4591

            IN - OUT =       13586.8814              IN - OUT =          15.6860

 PERCENT DISCREPANCY =           0.00     PERCENT DISCREPANCY =           0.00




         TIME SUMMARY AT END OF TIME STEP    1 IN STRESS PERIOD 1031
                          TIME STEP LENGTH =    1.00000    
                        STRESS PERIOD TIME =    1.00000    
                     TOTAL SIMULATION TIME =    1031.00    

end timestep


start timestep kper="1032" kstp="1" mode="normal"


 OUTPUT CONTROL FOR STRESS PERIOD 1032 IS REPEATED USING SETTINGS FROM A PREVIOUS STRESS PERIOD.


 STRESS PERIOD 1032 IS TRANSIENT


 REUSING WELS FROM LAST STRESS PERIOD

 REUSING DRNS FROM LAST STRESS PERIOD

 REUSING RCHS FROM LAST STRESS PERIOD


  VOLUME BUDGET FOR ENTIRE MODEL AT END OF TIME STEP    1, STRESS PERIOD1032
  ---------------------------------------------------------------------------------------------------

     CUMULATIVE VOLUME      L**3       RATES FOR THIS TIME STEP      L**3/T          PACKAGE NAME    
     ------------------                 ------------------------                     ----------------

           IN:                                      IN:
           ---                                      ---
              STO-SS =           0.0000                STO-SS =           0.0000     STORAGE         
              STO-SY = 19161628179.8469                STO-SY =    12972129.1852     STORAGE         
                 WEL =           0.0000                   WEL =           0.0000     WEL_0           
                 DRN =           0.0000                   DRN =           0.0000     DRN_0           
                 RCH = 44357618859.2166                   RCH =     7150133.4910     RCH_0           

            TOTAL IN = 63519247039.0634              TOTAL IN =    20122262.6762

          OUT:                                     OUT:
          ----                                     ----
              STO-SS =           0.0000                STO-SS =           0.0000     STORAGE         
              STO-SY = 16013832698.3711                STO-SY =     2617581.3850     STORAGE         
                 WEL = 10450268642.9586                   WEL =     5348296.9942     WEL_0           
                 DRN = 37055132110.7321                   DRN =    12156384.1768     DRN_0           
                 RCH =           0.0000                   RCH =           0.0000     RCH_0           

           TOTAL OUT = 63519233452.0618             TOTAL OUT =    20122262.5560

            IN - OUT =       13587.0017              IN - OUT =           0.1203

 PERCENT DISCREPANCY =           0.00     PERCENT DISCREPANCY =           0.00




         TIME SUMMARY AT END OF TIME STEP    1 IN STRESS PERIOD 1032
                          TIME STEP LENGTH =    1.00000    
                        STRESS PERIOD TIME =    1.00000    
                     TOTAL SIMULATION TIME =    1032.00    

end timestep


start timestep kper="1033" kstp="1" mode="normal"


 OUTPUT CONTROL FOR STRESS PERIOD 1033 IS REPEATED USING SETTINGS FROM A PREVIOUS STRESS PERIOD.


 STRESS PERIOD 1033 IS TRANSIENT


 REUSING WELS FROM LAST STRESS PERIOD

 REUSING DRNS FROM LAST STRESS PERIOD

 REUSING RCHS FROM LAST STRESS PERIOD


  VOLUME BUDGET FOR ENTIRE MODEL AT END OF TIME STEP    1, STRESS PERIOD1033
  ---------------------------------------------------------------------------------------------------

     CUMULATIVE VOLUME      L**3       RATES FOR THIS TIME STEP      L**3/T          PACKAGE NAME    
     ------------------                 ------------------------                     ----------------

           IN:                                      IN:
           ---                                      ---
              STO-SS =           0.0000                STO-SS =           0.0000     STORAGE         
              STO-SY = 19177862632.3844                STO-SY =    16234452.5376     STORAGE         
                 WEL =           0.0000                   WEL =           0.0000     WEL_0           
                 DRN =           0.0000                   DRN =           0.0000     DRN_0           
                 RCH = 44370889690.4282                   RCH =    13270831.2117     RCH_0           

            TOTAL IN = 63548752322.8127              TOTAL IN =    29505283.7492

          OUT:                                     OUT:
          ----                                     ----
              STO-SS =           0.0000                STO-SS =           0.0000     STORAGE         
              STO-SY = 16016960974.3617                STO-SY =     3128275.9907     STORAGE         
                 WEL = 10462810212.4310                   WEL =    12541569.4725     WEL_0           
                 DRN = 37068967548.3780                   DRN =    13835437.6459     DRN_0           
                 RCH =           0.0000                   RCH =           0.0000     RCH_0           

           TOTAL OUT = 63548738735.1708             TOTAL OUT =    29505283.1090

            IN - OUT =       13587.6419              IN - OUT =           0.6402

 PERCENT DISCREPANCY =           0.00     PERCENT DISCREPANCY =           0.00




         TIME SUMMARY AT END OF TIME STEP    1 IN STRESS PERIOD 1033
                          TIME STEP LENGTH =    1.00000    
                        STRESS PERIOD TIME =    1.00000    
                     TOTAL SIMULATION TIME =    1033.00    

end timestep


start timestep kper="1034" kstp="1" mode="normal"


 OUTPUT CONTROL FOR STRESS PERIOD 1034 IS REPEATED USING SETTINGS FROM A PREVIOUS STRESS PERIOD.


 STRESS PERIOD 1034 IS TRANSIENT


 REUSING WELS FROM LAST STRESS PERIOD

 REUSING DRNS FROM LAST STRESS PERIOD

 REUSING RCHS FROM LAST STRESS PERIOD


  VOLUME BUDGET FOR ENTIRE MODEL AT END OF TIME STEP    1, STRESS PERIOD1034
  ---------------------------------------------------------------------------------------------------

     CUMULATIVE VOLUME      L**3       RATES FOR THIS TIME STEP      L**3/T          PACKAGE NAME    
     ------------------                 ------------------------                     ----------------

           IN:                                      IN:
           ---                                      ---
              STO-SS =           0.0000                STO-SS =           0.0000     STORAGE         
              STO-SY = 19198946513.7726                STO-SY =    21083881.3882     STORAGE         
                 WEL =           0.0000                   WEL =           0.0000     WEL_0           
                 DRN =           0.0000                   DRN =           0.0000     DRN_0           
                 RCH = 44384877803.7096                   RCH =    13988113.2814     RCH_0           

            TOTAL IN = 63583824317.4822              TOTAL IN =    35071994.6696

          OUT:                                     OUT:
          ----                                     ----
              STO-SS =           0.0000                STO-SS =           0.0000     STORAGE         
              STO-SY = 16020338102.8196                STO-SY =     3377128.4578     STORAGE         
                 WEL = 10482476488.4721                   WEL =    19666276.0411     WEL_0           
                 DRN = 37080996119.1189                   DRN =    12028570.7409     DRN_0           
                 RCH =           0.0000                   RCH =           0.0000     RCH_0           

           TOTAL OUT = 63583810710.4106             TOTAL OUT =    35071975.2398

            IN - OUT =       13607.0716              IN - OUT =          19.4297

 PERCENT DISCREPANCY =           0.00     PERCENT DISCREPANCY =           0.00




         TIME SUMMARY AT END OF TIME STEP    1 IN STRESS PERIOD 1034
                          TIME STEP LENGTH =    1.00000    
                        STRESS PERIOD TIME =    1.00000    
                     TOTAL SIMULATION TIME =    1034.00    

end timestep


start timestep kper="1035" kstp="1" mode="normal"


 OUTPUT CONTROL FOR STRESS PERIOD 1035 IS REPEATED USING SETTINGS FROM A PREVIOUS STRESS PERIOD.


 STRESS PERIOD 1035 IS TRANSIENT


 REUSING WELS FROM LAST STRESS PERIOD

 REUSING DRNS FROM LAST STRESS PERIOD

 REUSING RCHS FROM LAST STRESS PERIOD


  VOLUME BUDGET FOR ENTIRE MODEL AT END OF TIME STEP    1, STRESS PERIOD1035
  ---------------------------------------------------------------------------------------------------

     CUMULATIVE VOLUME      L**3       RATES FOR THIS TIME STEP      L**3/T          PACKAGE NAME    
     ------------------                 ------------------------                     ----------------

           IN:                                      IN:
           ---                                      ---
              STO-SS =           0.0000                STO-SS =           0.0000     STORAGE         
              STO-SY = 19216971554.2904                STO-SY =    18025040.5177     STORAGE         
                 WEL =           0.0000                   WEL =           0.0000     WEL_0           
                 DRN =           0.0000                   DRN =           0.0000     DRN_0           
                 RCH = 44397531752.1036                   RCH =    12653948.3940     RCH_0           

            TOTAL IN = 63614503306.3940              TOTAL IN =    30678988.9118

          OUT:                                     OUT:
          ----                                     ----
              STO-SS =           0.0000                STO-SS =           0.0000     STORAGE         
              STO-SY = 16023211679.5981                STO-SY =     2873576.7785     STORAGE         
                 WEL = 10496968150.6534                   WEL =    14491662.1813     WEL_0           
                 DRN = 37094309865.9725                   DRN =    13313746.8536     DRN_0           
                 RCH =           0.0000                   RCH =           0.0000     RCH_0           

           TOTAL OUT = 63614489696.2240             TOTAL OUT =    30678985.8134

            IN - OUT =       13610.1700              IN - OUT =           3.0984

 PERCENT DISCREPANCY =           0.00     PERCENT DISCREPANCY =           0.00




         TIME SUMMARY AT END OF TIME STEP    1 IN STRESS PERIOD 1035
                          TIME STEP LENGTH =    1.00000    
                        STRESS PERIOD TIME =    1.00000    
                     TOTAL SIMULATION TIME =    1035.00    

end timestep


start timestep kper="1036" kstp="1" mode="normal"


 OUTPUT CONTROL FOR STRESS PERIOD 1036 IS REPEATED USING SETTINGS FROM A PREVIOUS STRESS PERIOD.


 STRESS PERIOD 1036 IS TRANSIENT


 REUSING WELS FROM LAST STRESS PERIOD

 REUSING DRNS FROM LAST STRESS PERIOD

 REUSING RCHS FROM LAST STRESS PERIOD


  VOLUME BUDGET FOR ENTIRE MODEL AT END OF TIME STEP    1, STRESS PERIOD1036
  ---------------------------------------------------------------------------------------------------

     CUMULATIVE VOLUME      L**3       RATES FOR THIS TIME STEP      L**3/T          PACKAGE NAME    
     ------------------                 ------------------------                     ----------------

           IN:                                      IN:
           ---                                      ---
              STO-SS =           0.0000                STO-SS =           0.0000     STORAGE         
              STO-SY = 19233346492.8437                STO-SY =    16374938.5533     STORAGE         
                 WEL =           0.0000                   WEL =           0.0000     WEL_0           
                 DRN =           0.0000                   DRN =           0.0000     DRN_0           
                 RCH = 44411178414.4500                   RCH =    13646662.3464     RCH_0           

            TOTAL IN = 63644524907.2937              TOTAL IN =    30021600.8997

          OUT:                                     OUT:
          ----                                     ----
              STO-SS =           0.0000                STO-SS =           0.0000     STORAGE         
              STO-SY = 16026973315.7120                STO-SY =     3761636.1139     STORAGE         
                 WEL = 10510485640.2810                   WEL =    13517489.6276     WEL_0           
                 DRN = 37107052342.5623                   DRN =    12742476.5898     DRN_0           
                 RCH =           0.0000                   RCH =           0.0000     RCH_0           

           TOTAL OUT = 63644511298.5553             TOTAL OUT =    30021602.3313

            IN - OUT =       13608.7384              IN - OUT =          -1.4316

 PERCENT DISCREPANCY =           0.00     PERCENT DISCREPANCY =          -0.00




         TIME SUMMARY AT END OF TIME STEP    1 IN STRESS PERIOD 1036
                          TIME STEP LENGTH =    1.00000    
                        STRESS PERIOD TIME =    1.00000    
                     TOTAL SIMULATION TIME =    1036.00    

end timestep


start timestep kper="1037" kstp="1" mode="normal"


 OUTPUT CONTROL FOR STRESS PERIOD 1037 IS REPEATED USING SETTINGS FROM A PREVIOUS STRESS PERIOD.


 STRESS PERIOD 1037 IS TRANSIENT


 REUSING WELS FROM LAST STRESS PERIOD

 REUSING DRNS FROM LAST STRESS PERIOD

 REUSING RCHS FROM LAST STRESS PERIOD


  VOLUME BUDGET FOR ENTIRE MODEL AT END OF TIME STEP    1, STRESS PERIOD1037
  ---------------------------------------------------------------------------------------------------

     CUMULATIVE VOLUME      L**3       RATES FOR THIS TIME STEP      L**3/T          PACKAGE NAME    
     ------------------                 ------------------------                     ----------------

           IN:                                      IN:
           ---                                      ---
              STO-SS =           0.0000                STO-SS =           0.0000     STORAGE         
              STO-SY = 19248527503.7882                STO-SY =    15181010.9445     STORAGE         
                 WEL =           0.0000                   WEL =           0.0000     WEL_0           
                 DRN =           0.0000                   DRN =           0.0000     DRN_0           
                 RCH = 44424420140.3754                   RCH =    13241725.9253     RCH_0           

            TOTAL IN = 63672947644.1636              TOTAL IN =    28422736.8699

          OUT:                                     OUT:
          ----                                     ----
              STO-SS =           0.0000                STO-SS =           0.0000     STORAGE         
              STO-SY = 16030164611.3144                STO-SY =     3191295.6024     STORAGE         
                 WEL = 10522254931.6325                   WEL =    11769291.3515     WEL_0           
                 DRN = 37120514485.1172                   DRN =    13462142.5549     DRN_0           
                 RCH =           0.0000                   RCH =           0.0000     RCH_0           

           TOTAL OUT = 63672934028.0641             TOTAL OUT =    28422729.5089

            IN - OUT =       13616.0994              IN - OUT =           7.3610

 PERCENT DISCREPANCY =           0.00     PERCENT DISCREPANCY =           0.00




         TIME SUMMARY AT END OF TIME STEP    1 IN STRESS PERIOD 1037
                          TIME STEP LENGTH =    1.00000    
                        STRESS PERIOD TIME =    1.00000    
                     TOTAL SIMULATION TIME =    1037.00    

end timestep


start timestep kper="1038" kstp="1" mode="normal"


 OUTPUT CONTROL FOR STRESS PERIOD 1038 IS REPEATED USING SETTINGS FROM A PREVIOUS STRESS PERIOD.


 STRESS PERIOD 1038 IS TRANSIENT


 REUSING WELS FROM LAST STRESS PERIOD

 REUSING DRNS FROM LAST STRESS PERIOD

 REUSING RCHS FROM LAST STRESS PERIOD


  VOLUME BUDGET FOR ENTIRE MODEL AT END OF TIME STEP    1, STRESS PERIOD1038
  ---------------------------------------------------------------------------------------------------

     CUMULATIVE VOLUME      L**3       RATES FOR THIS TIME STEP      L**3/T          PACKAGE NAME    
     ------------------                 ------------------------                     ----------------

           IN:                                      IN:
           ---                                      ---
              STO-SS =           0.0000                STO-SS =           0.0000     STORAGE         
              STO-SY = 19261659304.4395                STO-SY =    13131800.6513     STORAGE         
                 WEL =           0.0000                   WEL =           0.0000     WEL_0           
                 DRN =           0.0000                   DRN =           0.0000     DRN_0           
                 RCH = 44433688258.9978                   RCH =     9268118.6224     RCH_0           

            TOTAL IN = 63695347563.4372              TOTAL IN =    22399919.2737

          OUT:                                     OUT:
          ----                                     ----
              STO-SS =           0.0000                STO-SS =           0.0000     STORAGE         
              STO-SY = 16033009832.8997                STO-SY =     2845221.5853     STORAGE         
                 WEL = 10529908258.4231                   WEL =     7653326.7906     WEL_0           
                 DRN = 37132415857.7145                   DRN =    11901372.5973     DRN_0           
                 RCH =           0.0000                   RCH =           0.0000     RCH_0           

           TOTAL OUT = 63695333949.0373             TOTAL OUT =    22399920.9732

            IN - OUT =       13614.3999              IN - OUT =          -1.6995

 PERCENT DISCREPANCY =           0.00     PERCENT DISCREPANCY =          -0.00




         TIME SUMMARY AT END OF TIME STEP    1 IN STRESS PERIOD 1038
                          TIME STEP LENGTH =    1.00000    
                        STRESS PERIOD TIME =    1.00000    
                     TOTAL SIMULATION TIME =    1038.00    

end timestep


start timestep kper="1039" kstp="1" mode="normal"


 OUTPUT CONTROL FOR STRESS PERIOD 1039 IS REPEATED USING SETTINGS FROM A PREVIOUS STRESS PERIOD.


 STRESS PERIOD 1039 IS TRANSIENT


 REUSING WELS FROM LAST STRESS PERIOD

 REUSING DRNS FROM LAST STRESS PERIOD

 REUSING RCHS FROM LAST STRESS PERIOD


  VOLUME BUDGET FOR ENTIRE MODEL AT END OF TIME STEP    1, STRESS PERIOD1039
  ---------------------------------------------------------------------------------------------------

     CUMULATIVE VOLUME      L**3       RATES FOR THIS TIME STEP      L**3/T          PACKAGE NAME    
     ------------------                 ------------------------                     ----------------

           IN:                                      IN:
           ---                                      ---
              STO-SS =           0.0000                STO-SS =           0.0000     STORAGE         
              STO-SY = 19274641741.5914                STO-SY =    12982437.1519     STORAGE         
                 WEL =           0.0000                   WEL =           0.0000     WEL_0           
                 DRN =           0.0000                   DRN =           0.0000     DRN_0           
                 RCH = 44444409513.9084                   RCH =    10721254.9107     RCH_0           

            TOTAL IN = 63719051255.4998              TOTAL IN =    23703692.0626

          OUT:                                     OUT:
          ----                                     ----
              STO-SS =           0.0000                STO-SS =           0.0000     STORAGE         
              STO-SY = 16036096007.9397                STO-SY =     3086175.0399     STORAGE         
                 WEL = 10537039446.2289                   WEL =     7131187.8058     WEL_0           
                 DRN = 37145902179.6913                   DRN =    13486321.9768     DRN_0           
                 RCH =           0.0000                   RCH =           0.0000     RCH_0           

           TOTAL OUT = 63719037633.8599             TOTAL OUT =    23703684.8226

            IN - OUT =       13621.6399              IN - OUT =           7.2400

 PERCENT DISCREPANCY =           0.00     PERCENT DISCREPANCY =           0.00




         TIME SUMMARY AT END OF TIME STEP    1 IN STRESS PERIOD 1039
                          TIME STEP LENGTH =    1.00000    
                        STRESS PERIOD TIME =    1.00000    
                     TOTAL SIMULATION TIME =    1039.00    

end timestep


start timestep kper="1040" kstp="1" mode="normal"


 OUTPUT CONTROL FOR STRESS PERIOD 1040 IS REPEATED USING SETTINGS FROM A PREVIOUS STRESS PERIOD.


 STRESS PERIOD 1040 IS TRANSIENT


 REUSING WELS FROM LAST STRESS PERIOD

 REUSING DRNS FROM LAST STRESS PERIOD

 REUSING RCHS FROM LAST STRESS PERIOD


  VOLUME BUDGET FOR ENTIRE MODEL AT END OF TIME STEP    1, STRESS PERIOD1040
  ---------------------------------------------------------------------------------------------------

     CUMULATIVE VOLUME      L**3       RATES FOR THIS TIME STEP      L**3/T          PACKAGE NAME    
     ------------------                 ------------------------                     ----------------

           IN:                                      IN:
           ---                                      ---
              STO-SS =           0.0000                STO-SS =           0.0000     STORAGE         
              STO-SY = 19288038250.3923                STO-SY =    13396508.8010     STORAGE         
                 WEL =           0.0000                   WEL =           0.0000     WEL_0           
                 DRN =           0.0000                   DRN =           0.0000     DRN_0           
                 RCH = 44453432781.4055                   RCH =     9023267.4970     RCH_0           

            TOTAL IN = 63741471031.7978              TOTAL IN =    22419776.2980

          OUT:                                     OUT:
          ----                                     ----
              STO-SS =           0.0000                STO-SS =           0.0000     STORAGE         
              STO-SY = 16038779136.7926                STO-SY =     2683128.8530     STORAGE         
                 WEL = 10544875315.7177                   WEL =     7835869.4887     WEL_0           
                 DRN = 37157802962.7272                   DRN =    11900783.0359     DRN_0           
                 RCH =           0.0000                   RCH =           0.0000     RCH_0           

           TOTAL OUT = 63741457415.2375             TOTAL OUT =    22419781.3776

            IN - OUT =       13616.5603              IN - OUT =          -5.0796

 PERCENT DISCREPANCY =           0.00     PERCENT DISCREPANCY =          -0.00




         TIME SUMMARY AT END OF TIME STEP    1 IN STRESS PERIOD 1040
                          TIME STEP LENGTH =    1.00000    
                        STRESS PERIOD TIME =    1.00000    
                     TOTAL SIMULATION TIME =    1040.00    

end timestep


start timestep kper="1041" kstp="1" mode="normal"


 OUTPUT CONTROL FOR STRESS PERIOD 1041 IS REPEATED USING SETTINGS FROM A PREVIOUS STRESS PERIOD.


 STRESS PERIOD 1041 IS TRANSIENT


 REUSING WELS FROM LAST STRESS PERIOD

 REUSING DRNS FROM LAST STRESS PERIOD

 REUSING RCHS FROM LAST STRESS PERIOD


  VOLUME BUDGET FOR ENTIRE MODEL AT END OF TIME STEP    1, STRESS PERIOD1041
  ---------------------------------------------------------------------------------------------------

     CUMULATIVE VOLUME      L**3       RATES FOR THIS TIME STEP      L**3/T          PACKAGE NAME    
     ------------------                 ------------------------                     ----------------

           IN:                                      IN:
           ---                                      ---
              STO-SS =           0.0000                STO-SS =           0.0000     STORAGE         
              STO-SY = 19301405816.4148                STO-SY =    13367566.0225     STORAGE         
                 WEL =           0.0000                   WEL =           0.0000     WEL_0           
                 DRN =           0.0000                   DRN =           0.0000     DRN_0           
                 RCH = 44462836891.8052                   RCH =     9404110.3997     RCH_0           

            TOTAL IN = 63764242708.2200              TOTAL IN =    22771676.4222

          OUT:                                     OUT:
          ----                                     ----
              STO-SS =           0.0000                STO-SS =           0.0000     STORAGE         
              STO-SY = 16041305944.9252                STO-SY =     2526808.1325     STORAGE         
                 WEL = 10552111651.6850                   WEL =     7236335.9673     WEL_0           
                 DRN = 37170811513.0777                   DRN =    13008550.3505     DRN_0           
                 RCH =           0.0000                   RCH =           0.0000     RCH_0           

           TOTAL OUT = 63764229109.6879             TOTAL OUT =    22771694.4504

            IN - OUT =       13598.5321              IN - OUT =         -18.0282

 PERCENT DISCREPANCY =           0.00     PERCENT DISCREPANCY =          -0.00




         TIME SUMMARY AT END OF TIME STEP    1 IN STRESS PERIOD 1041
                          TIME STEP LENGTH =    1.00000    
                        STRESS PERIOD TIME =    1.00000    
                     TOTAL SIMULATION TIME =    1041.00    

end timestep


start timestep kper="1042" kstp="1" mode="normal"


 OUTPUT CONTROL FOR STRESS PERIOD 1042 IS REPEATED USING SETTINGS FROM A PREVIOUS STRESS PERIOD.


 STRESS PERIOD 1042 IS TRANSIENT


 REUSING WELS FROM LAST STRESS PERIOD

 REUSING DRNS FROM LAST STRESS PERIOD

 REUSING RCHS FROM LAST STRESS PERIOD


  VOLUME BUDGET FOR ENTIRE MODEL AT END OF TIME STEP    1, STRESS PERIOD1042
  ---------------------------------------------------------------------------------------------------

     CUMULATIVE VOLUME      L**3       RATES FOR THIS TIME STEP      L**3/T          PACKAGE NAME    
     ------------------                 ------------------------                     ----------------

           IN:                                      IN:
           ---                                      ---
              STO-SS =           0.0000                STO-SS =           0.0000     STORAGE         
              STO-SY = 19315795459.2213                STO-SY =    14389642.8065     STORAGE         
                 WEL =           0.0000                   WEL =           0.0000     WEL_0           
                 DRN =           0.0000                   DRN =           0.0000     DRN_0           
                 RCH = 44472314515.8505                   RCH =     9477624.0453     RCH_0           

            TOTAL IN = 63788109975.0718              TOTAL IN =    23867266.8518

          OUT:                                     OUT:
          ----                                     ----
              STO-SS =           0.0000                STO-SS =           0.0000     STORAGE         
              STO-SY = 16043965345.6183                STO-SY =     2659400.6931     STORAGE         
                 WEL = 10561730880.5730                   WEL =     9619228.8880     WEL_0           
                 DRN = 37182400151.8488                   DRN =    11588638.7710     DRN_0           
                 RCH =           0.0000                   RCH =           0.0000     RCH_0           

           TOTAL OUT = 63788096378.0401             TOTAL OUT =    23867268.3522

            IN - OUT =       13597.0317              IN - OUT =          -1.5004

 PERCENT DISCREPANCY =           0.00     PERCENT DISCREPANCY =          -0.00




         TIME SUMMARY AT END OF TIME STEP    1 IN STRESS PERIOD 1042
                          TIME STEP LENGTH =    1.00000    
                        STRESS PERIOD TIME =    1.00000    
                     TOTAL SIMULATION TIME =    1042.00    

end timestep


start timestep kper="1043" kstp="1" mode="normal"


 OUTPUT CONTROL FOR STRESS PERIOD 1043 IS REPEATED USING SETTINGS FROM A PREVIOUS STRESS PERIOD.


 STRESS PERIOD 1043 IS TRANSIENT


 REUSING WELS FROM LAST STRESS PERIOD

 REUSING DRNS FROM LAST STRESS PERIOD

 REUSING RCHS FROM LAST STRESS PERIOD


  VOLUME BUDGET FOR ENTIRE MODEL AT END OF TIME STEP    1, STRESS PERIOD1043
  ---------------------------------------------------------------------------------------------------

     CUMULATIVE VOLUME      L**3       RATES FOR THIS TIME STEP      L**3/T          PACKAGE NAME    
     ------------------                 ------------------------                     ----------------

           IN:                                      IN:
           ---                                      ---
              STO-SS =           0.0000                STO-SS =           0.0000     STORAGE         
              STO-SY = 19327792137.8129                STO-SY =    11996678.5916     STORAGE         
                 WEL =           0.0000                   WEL =           0.0000     WEL_0           
                 DRN =           0.0000                   DRN =           0.0000     DRN_0           
                 RCH = 44480883653.3429                   RCH =     8569137.4924     RCH_0           

            TOTAL IN = 63808675791.1558              TOTAL IN =    20565816.0840

          OUT:                                     OUT:
          ----                                     ----
              STO-SS =           0.0000                STO-SS =           0.0000     STORAGE         
              STO-SY = 16046555328.6188                STO-SY =     2589983.0006     STORAGE         
                 WEL = 10566560705.4868                   WEL =     4829824.9137     WEL_0           
                 DRN = 37195546160.5292                   DRN =    13146008.6805     DRN_0           
                 RCH =           0.0000                   RCH =           0.0000     RCH_0           

           TOTAL OUT = 63808662194.6348             TOTAL OUT =    20565816.5948

            IN - OUT =       13596.5210              IN - OUT =          -0.5108

 PERCENT DISCREPANCY =           0.00     PERCENT DISCREPANCY =          -0.00




         TIME SUMMARY AT END OF TIME STEP    1 IN STRESS PERIOD 1043
                          TIME STEP LENGTH =    1.00000    
                        STRESS PERIOD TIME =    1.00000    
                     TOTAL SIMULATION TIME =    1043.00    

end timestep


start timestep kper="1044" kstp="1" mode="normal"


 OUTPUT CONTROL FOR STRESS PERIOD 1044 IS REPEATED USING SETTINGS FROM A PREVIOUS STRESS PERIOD.


 STRESS PERIOD 1044 IS TRANSIENT


 REUSING WELS FROM LAST STRESS PERIOD

 REUSING DRNS FROM LAST STRESS PERIOD

 REUSING RCHS FROM LAST STRESS PERIOD


  VOLUME BUDGET FOR ENTIRE MODEL AT END OF TIME STEP    1, STRESS PERIOD1044
  ---------------------------------------------------------------------------------------------------

     CUMULATIVE VOLUME      L**3       RATES FOR THIS TIME STEP      L**3/T          PACKAGE NAME    
     ------------------                 ------------------------                     ----------------

           IN:                                      IN:
           ---                                      ---
              STO-SS =           0.0000                STO-SS =           0.0000     STORAGE         
              STO-SY = 19339261612.4867                STO-SY =    11469474.6738     STORAGE         
                 WEL =           0.0000                   WEL =           0.0000     WEL_0           
                 DRN =           0.0000                   DRN =           0.0000     DRN_0           
                 RCH = 44491680793.8502                   RCH =    10797140.5073     RCH_0           

            TOTAL IN = 63830942406.3369              TOTAL IN =    22266615.1811

          OUT:                                     OUT:
          ----                                     ----
              STO-SS =           0.0000                STO-SS =           0.0000     STORAGE         
              STO-SY = 16050436255.3355                STO-SY =     3880926.7167     STORAGE         
                 WEL = 10572918793.0001                   WEL =     6358087.5133     WEL_0           
                 DRN = 37207573749.5324                   DRN =    12027589.0032     DRN_0           
                 RCH =           0.0000                   RCH =           0.0000     RCH_0           

           TOTAL OUT = 63830928797.8680             TOTAL OUT =    22266603.2331

            IN - OUT =       13608.4689              IN - OUT =          11.9480

 PERCENT DISCREPANCY =           0.00     PERCENT DISCREPANCY =           0.00




         TIME SUMMARY AT END OF TIME STEP    1 IN STRESS PERIOD 1044
                          TIME STEP LENGTH =    1.00000    
                        STRESS PERIOD TIME =    1.00000    
                     TOTAL SIMULATION TIME =    1044.00    

end timestep


start timestep kper="1045" kstp="1" mode="normal"


 OUTPUT CONTROL FOR STRESS PERIOD 1045 IS REPEATED USING SETTINGS FROM A PREVIOUS STRESS PERIOD.


 STRESS PERIOD 1045 IS TRANSIENT


 REUSING WELS FROM LAST STRESS PERIOD

 REUSING DRNS FROM LAST STRESS PERIOD

 REUSING RCHS FROM LAST STRESS PERIOD


  VOLUME BUDGET FOR ENTIRE MODEL AT END OF TIME STEP    1, STRESS PERIOD1045
  ---------------------------------------------------------------------------------------------------

     CUMULATIVE VOLUME      L**3       RATES FOR THIS TIME STEP      L**3/T          PACKAGE NAME    
     ------------------                 ------------------------                     ----------------

           IN:                                      IN:
           ---                                      ---
              STO-SS =           0.0000                STO-SS =           0.0000     STORAGE         
              STO-SY = 19351793182.4337                STO-SY =    12531569.9470     STORAGE         
                 WEL =           0.0000                   WEL =           0.0000     WEL_0           
                 DRN =           0.0000                   DRN =           0.0000     DRN_0           
                 RCH = 44501854293.5236                   RCH =    10173499.6734     RCH_0           

            TOTAL IN = 63853647475.9573              TOTAL IN =    22705069.6204

          OUT:                                     OUT:
          ----                                     ----
              STO-SS =           0.0000                STO-SS =           0.0000     STORAGE         
              STO-SY = 16053056814.9031                STO-SY =     2620559.5675     STORAGE         
                 WEL = 10580142878.7380                   WEL =     7224085.7379     WEL_0           
                 DRN = 37220434170.7509                   DRN =    12860421.2185     DRN_0           
                 RCH =           0.0000                   RCH =           0.0000     RCH_0           

           TOTAL OUT = 63853633864.3919             TOTAL OUT =    22705066.5239

            IN - OUT =       13611.5653              IN - OUT =           3.0964

 PERCENT DISCREPANCY =           0.00     PERCENT DISCREPANCY =           0.00




         TIME SUMMARY AT END OF TIME STEP    1 IN STRESS PERIOD 1045
                          TIME STEP LENGTH =    1.00000    
                        STRESS PERIOD TIME =    1.00000    
                     TOTAL SIMULATION TIME =    1045.00    

end timestep


start timestep kper="1046" kstp="1" mode="normal"


 OUTPUT CONTROL FOR STRESS PERIOD 1046 IS REPEATED USING SETTINGS FROM A PREVIOUS STRESS PERIOD.


 STRESS PERIOD 1046 IS TRANSIENT


 REUSING WELS FROM LAST STRESS PERIOD

 REUSING DRNS FROM LAST STRESS PERIOD

 REUSING RCHS FROM LAST STRESS PERIOD


  VOLUME BUDGET FOR ENTIRE MODEL AT END OF TIME STEP    1, STRESS PERIOD1046
  ---------------------------------------------------------------------------------------------------

     CUMULATIVE VOLUME      L**3       RATES FOR THIS TIME STEP      L**3/T          PACKAGE NAME    
     ------------------                 ------------------------                     ----------------

           IN:                                      IN:
           ---                                      ---
              STO-SS =           0.0000                STO-SS =           0.0000     STORAGE         
              STO-SY = 19374101106.3423                STO-SY =    22307923.9086     STORAGE         
                 WEL =           0.0000                   WEL =           0.0000     WEL_0           
                 DRN =           0.0000                   DRN =           0.0000     DRN_0           
                 RCH = 44517942122.4408                   RCH =    16087828.9173     RCH_0           

            TOTAL IN = 63892043228.7832              TOTAL IN =    38395752.8259

          OUT:                                     OUT:
          ----                                     ----
              STO-SS =           0.0000                STO-SS =           0.0000     STORAGE         
              STO-SY = 16056891740.5309                STO-SY =     3834925.6278     STORAGE         
                 WEL = 10602895415.2388                   WEL =    22752536.5008     WEL_0           
                 DRN = 37232242497.8558                   DRN =    11808327.1049     DRN_0           
                 RCH =           0.0000                   RCH =           0.0000     RCH_0           

           TOTAL OUT = 63892029653.6254             TOTAL OUT =    38395789.2335

            IN - OUT =       13575.1578              IN - OUT =         -36.4076

 PERCENT DISCREPANCY =           0.00     PERCENT DISCREPANCY =          -0.00




         TIME SUMMARY AT END OF TIME STEP    1 IN STRESS PERIOD 1046
                          TIME STEP LENGTH =    1.00000    
                        STRESS PERIOD TIME =    1.00000    
                     TOTAL SIMULATION TIME =    1046.00    

end timestep


start timestep kper="1047" kstp="1" mode="normal"


 OUTPUT CONTROL FOR STRESS PERIOD 1047 IS REPEATED USING SETTINGS FROM A PREVIOUS STRESS PERIOD.


 STRESS PERIOD 1047 IS TRANSIENT


 REUSING WELS FROM LAST STRESS PERIOD

 REUSING DRNS FROM LAST STRESS PERIOD

 REUSING RCHS FROM LAST STRESS PERIOD


  VOLUME BUDGET FOR ENTIRE MODEL AT END OF TIME STEP    1, STRESS PERIOD1047
  ---------------------------------------------------------------------------------------------------

     CUMULATIVE VOLUME      L**3       RATES FOR THIS TIME STEP      L**3/T          PACKAGE NAME    
     ------------------                 ------------------------                     ----------------

           IN:                                      IN:
           ---                                      ---
              STO-SS =           0.0000                STO-SS =           0.0000     STORAGE         
              STO-SY = 19392259091.8537                STO-SY =    18157985.5114     STORAGE         
                 WEL =           0.0000                   WEL =           0.0000     WEL_0           
                 DRN =           0.0000                   DRN =           0.0000     DRN_0           
                 RCH = 44531625850.7694                   RCH =    13683728.3286     RCH_0           

            TOTAL IN = 63923884942.6231              TOTAL IN =    31841713.8399

          OUT:                                     OUT:
          ----                                     ----
              STO-SS =           0.0000                STO-SS =           0.0000     STORAGE         
              STO-SY = 16059343708.0849                STO-SY =     2451967.5539     STORAGE         
                 WEL = 10619790432.9826                   WEL =    16895017.7439     WEL_0           
                 DRN = 37244737219.8072                   DRN =    12494721.9514     DRN_0           
                 RCH =           0.0000                   RCH =           0.0000     RCH_0           

           TOTAL OUT = 63923871360.8747             TOTAL OUT =    31841707.2492

            IN - OUT =       13581.7485              IN - OUT =           6.5907

 PERCENT DISCREPANCY =           0.00     PERCENT DISCREPANCY =           0.00




         TIME SUMMARY AT END OF TIME STEP    1 IN STRESS PERIOD 1047
                          TIME STEP LENGTH =    1.00000    
                        STRESS PERIOD TIME =    1.00000    
                     TOTAL SIMULATION TIME =    1047.00    

end timestep


start timestep kper="1048" kstp="1" mode="normal"


 OUTPUT CONTROL FOR STRESS PERIOD 1048 IS REPEATED USING SETTINGS FROM A PREVIOUS STRESS PERIOD.


 STRESS PERIOD 1048 IS TRANSIENT


 REUSING WELS FROM LAST STRESS PERIOD

 REUSING DRNS FROM LAST STRESS PERIOD

 REUSING RCHS FROM LAST STRESS PERIOD


  VOLUME BUDGET FOR ENTIRE MODEL AT END OF TIME STEP    1, STRESS PERIOD1048
  ---------------------------------------------------------------------------------------------------

     CUMULATIVE VOLUME      L**3       RATES FOR THIS TIME STEP      L**3/T          PACKAGE NAME    
     ------------------                 ------------------------                     ----------------

           IN:                                      IN:
           ---                                      ---
              STO-SS =           0.0000                STO-SS =           0.0000     STORAGE         
              STO-SY = 19405150991.9563                STO-SY =    12891900.1026     STORAGE         
                 WEL =           0.0000                   WEL =           0.0000     WEL_0           
                 DRN =           0.0000                   DRN =           0.0000     DRN_0           
                 RCH = 44540356466.3995                   RCH =     8730615.6301     RCH_0           

            TOTAL IN = 63945507458.3558              TOTAL IN =    21622515.7327

          OUT:                                     OUT:
          ----                                     ----
              STO-SS =           0.0000                STO-SS =           0.0000     STORAGE         
              STO-SY = 16061810167.3623                STO-SY =     2466459.2775     STORAGE         
                 WEL = 10628106819.4759                   WEL =     8316386.4932     WEL_0           
                 DRN = 37255576867.6100                   DRN =    10839647.8028     DRN_0           
                 RCH =           0.0000                   RCH =           0.0000     RCH_0           

           TOTAL OUT = 63945493854.4482             TOTAL OUT =    21622493.5735

            IN - OUT =       13603.9076              IN - OUT =          22.1592

 PERCENT DISCREPANCY =           0.00     PERCENT DISCREPANCY =           0.00




         TIME SUMMARY AT END OF TIME STEP    1 IN STRESS PERIOD 1048
                          TIME STEP LENGTH =    1.00000    
                        STRESS PERIOD TIME =    1.00000    
                     TOTAL SIMULATION TIME =    1048.00    

end timestep


start timestep kper="1049" kstp="1" mode="normal"


 OUTPUT CONTROL FOR STRESS PERIOD 1049 IS REPEATED USING SETTINGS FROM A PREVIOUS STRESS PERIOD.


 STRESS PERIOD 1049 IS TRANSIENT


 REUSING WELS FROM LAST STRESS PERIOD

 REUSING DRNS FROM LAST STRESS PERIOD

 REUSING RCHS FROM LAST STRESS PERIOD


  VOLUME BUDGET FOR ENTIRE MODEL AT END OF TIME STEP    1, STRESS PERIOD1049
  ---------------------------------------------------------------------------------------------------

     CUMULATIVE VOLUME      L**3       RATES FOR THIS TIME STEP      L**3/T          PACKAGE NAME    
     ------------------                 ------------------------                     ----------------

           IN:                                      IN:
           ---                                      ---
              STO-SS =           0.0000                STO-SS =           0.0000     STORAGE         
              STO-SY = 19417652576.5988                STO-SY =    12501584.6425     STORAGE         
                 WEL =           0.0000                   WEL =           0.0000     WEL_0           
                 DRN =           0.0000                   DRN =           0.0000     DRN_0           
                 RCH = 44550095290.0362                   RCH =     9738823.6366     RCH_0           

            TOTAL IN = 63967747866.6349              TOTAL IN =    22240408.2791

          OUT:                                     OUT:
          ----                                     ----
              STO-SS =           0.0000                STO-SS =           0.0000     STORAGE         
              STO-SY = 16064259731.2190                STO-SY =     2449563.8567     STORAGE         
                 WEL = 10635455925.4882                   WEL =     7349106.0124     WEL_0           
                 DRN = 37268018561.1340                   DRN =    12441693.5240     DRN_0           
                 RCH =           0.0000                   RCH =           0.0000     RCH_0           

           TOTAL OUT = 63967734217.8412             TOTAL OUT =    22240363.3930

            IN - OUT =       13648.7937              IN - OUT =          44.8861

 PERCENT DISCREPANCY =           0.00     PERCENT DISCREPANCY =           0.00




         TIME SUMMARY AT END OF TIME STEP    1 IN STRESS PERIOD 1049
                          TIME STEP LENGTH =    1.00000    
                        STRESS PERIOD TIME =    1.00000    
                     TOTAL SIMULATION TIME =    1049.00    

end timestep


start timestep kper="1050" kstp="1" mode="normal"


 OUTPUT CONTROL FOR STRESS PERIOD 1050 IS REPEATED USING SETTINGS FROM A PREVIOUS STRESS PERIOD.


 STRESS PERIOD 1050 IS TRANSIENT


 REUSING WELS FROM LAST STRESS PERIOD

 REUSING DRNS FROM LAST STRESS PERIOD

 REUSING RCHS FROM LAST STRESS PERIOD


  VOLUME BUDGET FOR ENTIRE MODEL AT END OF TIME STEP    1, STRESS PERIOD1050
  ---------------------------------------------------------------------------------------------------

     CUMULATIVE VOLUME      L**3       RATES FOR THIS TIME STEP      L**3/T          PACKAGE NAME    
     ------------------                 ------------------------                     ----------------

           IN:                                      IN:
           ---                                      ---
              STO-SS =           0.0000                STO-SS =           0.0000     STORAGE         
              STO-SY = 19429718898.3585                STO-SY =    12066321.7598     STORAGE         
                 WEL =           0.0000                   WEL =           0.0000     WEL_0           
                 DRN =           0.0000                   DRN =           0.0000     DRN_0           
                 RCH = 44557017507.5225                   RCH =     6922217.4864     RCH_0           

            TOTAL IN = 63986736405.8811              TOTAL IN =    18988539.2461

          OUT:                                     OUT:
          ----                                     ----
              STO-SS =           0.0000                STO-SS =           0.0000     STORAGE         
              STO-SY = 16066584410.0924                STO-SY =     2324678.8733     STORAGE         
                 WEL = 10641179516.7541                   WEL =     5723591.2659     WEL_0           
                 DRN = 37278958834.2231                   DRN =    10940273.0891     DRN_0           
                 RCH =           0.0000                   RCH =           0.0000     RCH_0           

           TOTAL OUT = 63986722761.0696             TOTAL OUT =    18988543.2284

            IN - OUT =       13644.8115              IN - OUT =          -3.9822

 PERCENT DISCREPANCY =           0.00     PERCENT DISCREPANCY =          -0.00




         TIME SUMMARY AT END OF TIME STEP    1 IN STRESS PERIOD 1050
                          TIME STEP LENGTH =    1.00000    
                        STRESS PERIOD TIME =    1.00000    
                     TOTAL SIMULATION TIME =    1050.00    

end timestep


start timestep kper="1051" kstp="1" mode="normal"


 OUTPUT CONTROL FOR STRESS PERIOD 1051 IS REPEATED USING SETTINGS FROM A PREVIOUS STRESS PERIOD.


 STRESS PERIOD 1051 IS TRANSIENT


 REUSING WELS FROM LAST STRESS PERIOD

 REUSING DRNS FROM LAST STRESS PERIOD

 REUSING RCHS FROM LAST STRESS PERIOD


  VOLUME BUDGET FOR ENTIRE MODEL AT END OF TIME STEP    1, STRESS PERIOD1051
  ---------------------------------------------------------------------------------------------------

     CUMULATIVE VOLUME      L**3       RATES FOR THIS TIME STEP      L**3/T          PACKAGE NAME    
     ------------------                 ------------------------                     ----------------

           IN:                                      IN:
           ---                                      ---
              STO-SS =           0.0000                STO-SS =           0.0000     STORAGE         
              STO-SY = 19441342511.1306                STO-SY =    11623612.7721     STORAGE         
                 WEL =           0.0000                   WEL =           0.0000     WEL_0           
                 DRN =           0.0000                   DRN =           0.0000     DRN_0           
                 RCH = 44566704029.6978                   RCH =     9686522.1752     RCH_0           

            TOTAL IN = 64008046540.8284              TOTAL IN =    21310134.9473

          OUT:                                     OUT:
          ----                                     ----
              STO-SS =           0.0000                STO-SS =           0.0000     STORAGE         
              STO-SY = 16069152937.0939                STO-SY =     2568527.0016     STORAGE         
                 WEL = 10647350727.4690                   WEL =     6171210.7149     WEL_0           
                 DRN = 37291529232.2663                   DRN =    12570398.0431     DRN_0           
                 RCH =           0.0000                   RCH =           0.0000     RCH_0           

           TOTAL OUT = 64008032896.8292             TOTAL OUT =    21310135.7596

            IN - OUT =       13643.9992              IN - OUT =          -0.8123

 PERCENT DISCREPANCY =           0.00     PERCENT DISCREPANCY =          -0.00




         TIME SUMMARY AT END OF TIME STEP    1 IN STRESS PERIOD 1051
                          TIME STEP LENGTH =    1.00000    
                        STRESS PERIOD TIME =    1.00000    
                     TOTAL SIMULATION TIME =    1051.00    

end timestep


start timestep kper="1052" kstp="1" mode="normal"


 OUTPUT CONTROL FOR STRESS PERIOD 1052 IS REPEATED USING SETTINGS FROM A PREVIOUS STRESS PERIOD.


 STRESS PERIOD 1052 IS TRANSIENT


 REUSING WELS FROM LAST STRESS PERIOD

 REUSING DRNS FROM LAST STRESS PERIOD

 REUSING RCHS FROM LAST STRESS PERIOD


  VOLUME BUDGET FOR ENTIRE MODEL AT END OF TIME STEP    1, STRESS PERIOD1052
  ---------------------------------------------------------------------------------------------------

     CUMULATIVE VOLUME      L**3       RATES FOR THIS TIME STEP      L**3/T          PACKAGE NAME    
     ------------------                 ------------------------                     ----------------

           IN:                                      IN:
           ---                                      ---
              STO-SS =           0.0000                STO-SS =           0.0000     STORAGE         
              STO-SY = 19453330271.4924                STO-SY =    11987760.3617     STORAGE         
                 WEL =           0.0000                   WEL =           0.0000     WEL_0           
                 DRN =           0.0000                   DRN =           0.0000     DRN_0           
                 RCH = 44575993787.1407                   RCH =     9289757.4430     RCH_0           

            TOTAL IN = 64029324058.6331              TOTAL IN =    21277517.8047

          OUT:                                     OUT:
          ----                                     ----
              STO-SS =           0.0000                STO-SS =           0.0000     STORAGE         
              STO-SY = 16072474349.2042                STO-SY =     3321412.1103     STORAGE         
                 WEL = 10654546360.4754                   WEL =     7195633.0064     WEL_0           
                 DRN = 37302289694.8772                   DRN =    10760462.6109     DRN_0           
                 RCH =           0.0000                   RCH =           0.0000     RCH_0           

           TOTAL OUT = 64029310404.5568             TOTAL OUT =    21277507.7276

            IN - OUT =       13654.0763              IN - OUT =          10.0771

 PERCENT DISCREPANCY =           0.00     PERCENT DISCREPANCY =           0.00




         TIME SUMMARY AT END OF TIME STEP    1 IN STRESS PERIOD 1052
                          TIME STEP LENGTH =    1.00000    
                        STRESS PERIOD TIME =    1.00000    
                     TOTAL SIMULATION TIME =    1052.00    

end timestep


start timestep kper="1053" kstp="1" mode="normal"


 OUTPUT CONTROL FOR STRESS PERIOD 1053 IS REPEATED USING SETTINGS FROM A PREVIOUS STRESS PERIOD.


 STRESS PERIOD 1053 IS TRANSIENT


 REUSING WELS FROM LAST STRESS PERIOD

 REUSING DRNS FROM LAST STRESS PERIOD

 REUSING RCHS FROM LAST STRESS PERIOD


  VOLUME BUDGET FOR ENTIRE MODEL AT END OF TIME STEP    1, STRESS PERIOD1053
  ---------------------------------------------------------------------------------------------------

     CUMULATIVE VOLUME      L**3       RATES FOR THIS TIME STEP      L**3/T          PACKAGE NAME    
     ------------------                 ------------------------                     ----------------

           IN:                                      IN:
           ---                                      ---
              STO-SS =           0.0000                STO-SS =           0.0000     STORAGE         
              STO-SY = 19464573746.4066                STO-SY =    11243474.9142     STORAGE         
                 WEL =           0.0000                   WEL =           0.0000     WEL_0           
                 DRN =           0.0000                   DRN =           0.0000     DRN_0           
                 RCH = 44584111677.1100                   RCH =     8117889.9693     RCH_0           

            TOTAL IN = 64048685423.5166              TOTAL IN =    19361364.8835

          OUT:                                     OUT:
          ----                                     ----
              STO-SS =           0.0000                STO-SS =           0.0000     STORAGE         
              STO-SY = 16074999267.6916                STO-SY =     2524918.4874     STORAGE         
                 WEL = 10659155220.6094                   WEL =     4608860.1340     WEL_0           
                 DRN = 37314517277.8729                   DRN =    12227582.9957     DRN_0           
                 RCH =           0.0000                   RCH =           0.0000     RCH_0           

           TOTAL OUT = 64048671766.1739             TOTAL OUT =    19361361.6171

            IN - OUT =       13657.3427              IN - OUT =           3.2664

 PERCENT DISCREPANCY =           0.00     PERCENT DISCREPANCY =           0.00




         TIME SUMMARY AT END OF TIME STEP    1 IN STRESS PERIOD 1053
                          TIME STEP LENGTH =    1.00000    
                        STRESS PERIOD TIME =    1.00000    
                     TOTAL SIMULATION TIME =    1053.00    

end timestep


start timestep kper="1054" kstp="1" mode="normal"


 OUTPUT CONTROL FOR STRESS PERIOD 1054 IS REPEATED USING SETTINGS FROM A PREVIOUS STRESS PERIOD.


 STRESS PERIOD 1054 IS TRANSIENT


 REUSING WELS FROM LAST STRESS PERIOD

 REUSING DRNS FROM LAST STRESS PERIOD

 REUSING RCHS FROM LAST STRESS PERIOD


  VOLUME BUDGET FOR ENTIRE MODEL AT END OF TIME STEP    1, STRESS PERIOD1054
  ---------------------------------------------------------------------------------------------------

     CUMULATIVE VOLUME      L**3       RATES FOR THIS TIME STEP      L**3/T          PACKAGE NAME    
     ------------------                 ------------------------                     ----------------

           IN:                                      IN:
           ---                                      ---
              STO-SS =           0.0000                STO-SS =           0.0000     STORAGE         
              STO-SY = 19474056433.0998                STO-SY =     9482686.6932     STORAGE         
                 WEL =           0.0000                   WEL =           0.0000     WEL_0           
                 DRN =           0.0000                   DRN =           0.0000     DRN_0           
                 RCH = 44599722236.6277                   RCH =    15610559.5177     RCH_0           

            TOTAL IN = 64073778669.7275              TOTAL IN =    25093246.2109

          OUT:                                     OUT:
          ----                                     ----
              STO-SS =           0.0000                STO-SS =           0.0000     STORAGE         
              STO-SY = 16081281296.8837                STO-SY =     6282029.1921     STORAGE         
                 WEL = 10666449812.0046                   WEL =     7294591.3952     WEL_0           
                 DRN = 37326033906.5816                   DRN =    11516628.7087     DRN_0           
                 RCH =           0.0000                   RCH =           0.0000     RCH_0           

           TOTAL OUT = 64073765015.4699             TOTAL OUT =    25093249.2960

            IN - OUT =       13654.2576              IN - OUT =          -3.0851

 PERCENT DISCREPANCY =           0.00     PERCENT DISCREPANCY =          -0.00




         TIME SUMMARY AT END OF TIME STEP    1 IN STRESS PERIOD 1054
                          TIME STEP LENGTH =    1.00000    
                        STRESS PERIOD TIME =    1.00000    
                     TOTAL SIMULATION TIME =    1054.00    

end timestep


start timestep kper="1055" kstp="1" mode="normal"


 OUTPUT CONTROL FOR STRESS PERIOD 1055 IS REPEATED USING SETTINGS FROM A PREVIOUS STRESS PERIOD.


 STRESS PERIOD 1055 IS TRANSIENT


 REUSING WELS FROM LAST STRESS PERIOD

 REUSING DRNS FROM LAST STRESS PERIOD

 REUSING RCHS FROM LAST STRESS PERIOD


  VOLUME BUDGET FOR ENTIRE MODEL AT END OF TIME STEP    1, STRESS PERIOD1055
  ---------------------------------------------------------------------------------------------------

     CUMULATIVE VOLUME      L**3       RATES FOR THIS TIME STEP      L**3/T          PACKAGE NAME    
     ------------------                 ------------------------                     ----------------

           IN:                                      IN:
           ---                                      ---
              STO-SS =           0.0000                STO-SS =           0.0000     STORAGE         
              STO-SY = 19483847486.8213                STO-SY =     9791053.7215     STORAGE         
                 WEL =           0.0000                   WEL =           0.0000     WEL_0           
                 DRN =           0.0000                   DRN =           0.0000     DRN_0           
                 RCH = 44617459638.9671                   RCH =    17737402.3395     RCH_0           

            TOTAL IN = 64101307125.7884              TOTAL IN =    27528456.0610

          OUT:                                     OUT:
          ----                                     ----
              STO-SS =           0.0000                STO-SS =           0.0000     STORAGE         
              STO-SY = 16086965558.0189                STO-SY =     5684261.1352     STORAGE         
                 WEL = 10675892331.5677                   WEL =     9442519.5630     WEL_0           
                 DRN = 37338435557.3743                   DRN =    12401650.7927     DRN_0           
                 RCH =           0.0000                   RCH =           0.0000     RCH_0           

           TOTAL OUT = 64101293446.9608             TOTAL OUT =    27528431.4909

            IN - OUT =       13678.8276              IN - OUT =          24.5700

 PERCENT DISCREPANCY =           0.00     PERCENT DISCREPANCY =           0.00




         TIME SUMMARY AT END OF TIME STEP    1 IN STRESS PERIOD 1055
                          TIME STEP LENGTH =    1.00000    
                        STRESS PERIOD TIME =    1.00000    
                     TOTAL SIMULATION TIME =    1055.00    

end timestep


start timestep kper="1056" kstp="1" mode="normal"


 OUTPUT CONTROL FOR STRESS PERIOD 1056 IS REPEATED USING SETTINGS FROM A PREVIOUS STRESS PERIOD.


 STRESS PERIOD 1056 IS TRANSIENT


 REUSING WELS FROM LAST STRESS PERIOD

 REUSING DRNS FROM LAST STRESS PERIOD

 REUSING RCHS FROM LAST STRESS PERIOD


  VOLUME BUDGET FOR ENTIRE MODEL AT END OF TIME STEP    1, STRESS PERIOD1056
  ---------------------------------------------------------------------------------------------------

     CUMULATIVE VOLUME      L**3       RATES FOR THIS TIME STEP      L**3/T          PACKAGE NAME    
     ------------------                 ------------------------                     ----------------

           IN:                                      IN:
           ---                                      ---
              STO-SS =           0.0000                STO-SS =           0.0000     STORAGE         
              STO-SY = 19494765627.6592                STO-SY =    10918140.8379     STORAGE         
                 WEL =           0.0000                   WEL =           0.0000     WEL_0           
                 DRN =           0.0000                   DRN =           0.0000     DRN_0           
                 RCH = 44629035679.7167                   RCH =    11576040.7495     RCH_0           

            TOTAL IN = 64123801307.3759              TOTAL IN =    22494181.5875

          OUT:                                     OUT:
          ----                                     ----
              STO-SS =           0.0000                STO-SS =           0.0000     STORAGE         
              STO-SY = 16090336505.8529                STO-SY =     3370947.8340     STORAGE         
                 WEL = 10683963146.3839                   WEL =     8070814.8162     WEL_0           
                 DRN = 37349487958.1922                   DRN =    11052400.8179     DRN_0           
                 RCH =           0.0000                   RCH =           0.0000     RCH_0           

           TOTAL OUT = 64123787610.4290             TOTAL OUT =    22494163.4681

            IN - OUT =       13696.9469              IN - OUT =          18.1193

 PERCENT DISCREPANCY =           0.00     PERCENT DISCREPANCY =           0.00




         TIME SUMMARY AT END OF TIME STEP    1 IN STRESS PERIOD 1056
                          TIME STEP LENGTH =    1.00000    
                        STRESS PERIOD TIME =    1.00000    
                     TOTAL SIMULATION TIME =    1056.00    

end timestep


start timestep kper="1057" kstp="1" mode="normal"


 OUTPUT CONTROL FOR STRESS PERIOD 1057 IS REPEATED USING SETTINGS FROM A PREVIOUS STRESS PERIOD.


 STRESS PERIOD 1057 IS TRANSIENT


 REUSING WELS FROM LAST STRESS PERIOD

 REUSING DRNS FROM LAST STRESS PERIOD

 REUSING RCHS FROM LAST STRESS PERIOD


  VOLUME BUDGET FOR ENTIRE MODEL AT END OF TIME STEP    1, STRESS PERIOD1057
  ---------------------------------------------------------------------------------------------------

     CUMULATIVE VOLUME      L**3       RATES FOR THIS TIME STEP      L**3/T          PACKAGE NAME    
     ------------------                 ------------------------                     ----------------

           IN:                                      IN:
           ---                                      ---
              STO-SS =           0.0000                STO-SS =           0.0000     STORAGE         
              STO-SY = 19507922745.9524                STO-SY =    13157118.2932     STORAGE         
                 WEL =           0.0000                   WEL =           0.0000     WEL_0           
                 DRN =           0.0000                   DRN =           0.0000     DRN_0           
                 RCH = 44637145686.1118                   RCH =     8110006.3951     RCH_0           

            TOTAL IN = 64145068432.0642              TOTAL IN =    21267124.6883

          OUT:                                     OUT:
          ----                                     ----
              STO-SS =           0.0000                STO-SS =           0.0000     STORAGE         
              STO-SY = 16092377545.4062                STO-SY =     2041039.5533     STORAGE         
                 WEL = 10691344290.4313                   WEL =     7381144.0474     WEL_0           
                 DRN = 37361332888.0543                   DRN =    11844929.8622     DRN_0           
                 RCH =           0.0000                   RCH =           0.0000     RCH_0           

           TOTAL OUT = 64145054723.8919             TOTAL OUT =    21267113.4629

            IN - OUT =       13708.1723              IN - OUT =          11.2254

 PERCENT DISCREPANCY =           0.00     PERCENT DISCREPANCY =           0.00




         TIME SUMMARY AT END OF TIME STEP    1 IN STRESS PERIOD 1057
                          TIME STEP LENGTH =    1.00000    
                        STRESS PERIOD TIME =    1.00000    
                     TOTAL SIMULATION TIME =    1057.00    

end timestep


start timestep kper="1058" kstp="1" mode="normal"


 OUTPUT CONTROL FOR STRESS PERIOD 1058 IS REPEATED USING SETTINGS FROM A PREVIOUS STRESS PERIOD.


 STRESS PERIOD 1058 IS TRANSIENT


 REUSING WELS FROM LAST STRESS PERIOD

 REUSING DRNS FROM LAST STRESS PERIOD

 REUSING RCHS FROM LAST STRESS PERIOD


  VOLUME BUDGET FOR ENTIRE MODEL AT END OF TIME STEP    1, STRESS PERIOD1058
  ---------------------------------------------------------------------------------------------------

     CUMULATIVE VOLUME      L**3       RATES FOR THIS TIME STEP      L**3/T          PACKAGE NAME    
     ------------------                 ------------------------                     ----------------

           IN:                                      IN:
           ---                                      ---
              STO-SS =           0.0000                STO-SS =           0.0000     STORAGE         
              STO-SY = 19520184266.6306                STO-SY =    12261520.6782     STORAGE         
                 WEL =           0.0000                   WEL =           0.0000     WEL_0           
                 DRN =           0.0000                   DRN =           0.0000     DRN_0           
                 RCH = 44645323276.7098                   RCH =     8177590.5980     RCH_0           

            TOTAL IN = 64165507543.3404              TOTAL IN =    20439111.2762

          OUT:                                     OUT:
          ----                                     ----
              STO-SS =           0.0000                STO-SS =           0.0000     STORAGE         
              STO-SY = 16094831127.1199                STO-SY =     2453581.7137     STORAGE         
                 WEL = 10698497184.1387                   WEL =     7152893.7074     WEL_0           
                 DRN = 37372165556.9318                   DRN =    10832668.8774     DRN_0           
                 RCH =           0.0000                   RCH =           0.0000     RCH_0           

           TOTAL OUT = 64165493868.1904             TOTAL OUT =    20439144.2985

            IN - OUT =       13675.1500              IN - OUT =         -33.0223

 PERCENT DISCREPANCY =           0.00     PERCENT DISCREPANCY =          -0.00




         TIME SUMMARY AT END OF TIME STEP    1 IN STRESS PERIOD 1058
                          TIME STEP LENGTH =    1.00000    
                        STRESS PERIOD TIME =    1.00000    
                     TOTAL SIMULATION TIME =    1058.00    

end timestep


start timestep kper="1059" kstp="1" mode="normal"


 OUTPUT CONTROL FOR STRESS PERIOD 1059 IS REPEATED USING SETTINGS FROM A PREVIOUS STRESS PERIOD.


 STRESS PERIOD 1059 IS TRANSIENT


 REUSING WELS FROM LAST STRESS PERIOD

 REUSING DRNS FROM LAST STRESS PERIOD

 REUSING RCHS FROM LAST STRESS PERIOD


  VOLUME BUDGET FOR ENTIRE MODEL AT END OF TIME STEP    1, STRESS PERIOD1059
  ---------------------------------------------------------------------------------------------------

     CUMULATIVE VOLUME      L**3       RATES FOR THIS TIME STEP      L**3/T          PACKAGE NAME    
     ------------------                 ------------------------                     ----------------

           IN:                                      IN:
           ---                                      ---
              STO-SS =           0.0000                STO-SS =           0.0000     STORAGE         
              STO-SY = 19536664769.3993                STO-SY =    16480502.7686     STORAGE         
                 WEL =           0.0000                   WEL =           0.0000     WEL_0           
                 DRN =           0.0000                   DRN =           0.0000     DRN_0           
                 RCH = 44663036489.9180                   RCH =    17713213.2083     RCH_0           

            TOTAL IN = 64199701259.3173              TOTAL IN =    34193715.9769

          OUT:                                     OUT:
          ----                                     ----
              STO-SS =           0.0000                STO-SS =           0.0000     STORAGE         
              STO-SY = 16101368392.0143                STO-SY =     6537264.8944     STORAGE         
                 WEL = 10713931158.1716                   WEL =    15433974.0329     WEL_0           
                 DRN = 37384388033.7030                   DRN =    12222476.7712     DRN_0           
                 RCH =           0.0000                   RCH =           0.0000     RCH_0           

           TOTAL OUT = 64199687583.8889             TOTAL OUT =    34193715.6984

            IN - OUT =       13675.4284              IN - OUT =           0.2784

 PERCENT DISCREPANCY =           0.00     PERCENT DISCREPANCY =           0.00




         TIME SUMMARY AT END OF TIME STEP    1 IN STRESS PERIOD 1059
                          TIME STEP LENGTH =    1.00000    
                        STRESS PERIOD TIME =    1.00000    
                     TOTAL SIMULATION TIME =    1059.00    

end timestep


start timestep kper="1060" kstp="1" mode="normal"


 OUTPUT CONTROL FOR STRESS PERIOD 1060 IS REPEATED USING SETTINGS FROM A PREVIOUS STRESS PERIOD.


 STRESS PERIOD 1060 IS TRANSIENT


 REUSING WELS FROM LAST STRESS PERIOD

 REUSING DRNS FROM LAST STRESS PERIOD

 REUSING RCHS FROM LAST STRESS PERIOD


  VOLUME BUDGET FOR ENTIRE MODEL AT END OF TIME STEP    1, STRESS PERIOD1060
  ---------------------------------------------------------------------------------------------------

     CUMULATIVE VOLUME      L**3       RATES FOR THIS TIME STEP      L**3/T          PACKAGE NAME    
     ------------------                 ------------------------                     ----------------

           IN:                                      IN:
           ---                                      ---
              STO-SS =           0.0000                STO-SS =           0.0000     STORAGE         
              STO-SY = 19556291770.8758                STO-SY =    19627001.4766     STORAGE         
                 WEL =           0.0000                   WEL =           0.0000     WEL_0           
                 DRN =           0.0000                   DRN =           0.0000     DRN_0           
                 RCH = 44677879146.3188                   RCH =    14842656.4007     RCH_0           

            TOTAL IN = 64234170917.1946              TOTAL IN =    34469657.8773

          OUT:                                     OUT:
          ----                                     ----
              STO-SS =           0.0000                STO-SS =           0.0000     STORAGE         
              STO-SY = 16105216607.6138                STO-SY =     3848215.5995     STORAGE         
                 WEL = 10733309456.8735                   WEL =    19378298.7020     WEL_0           
                 DRN = 37395631166.5889                   DRN =    11243132.8859     DRN_0           
                 RCH =           0.0000                   RCH =           0.0000     RCH_0           

           TOTAL OUT = 64234157231.0762             TOTAL OUT =    34469647.1873

            IN - OUT =       13686.1184              IN - OUT =          10.6900

 PERCENT DISCREPANCY =           0.00     PERCENT DISCREPANCY =           0.00




         TIME SUMMARY AT END OF TIME STEP    1 IN STRESS PERIOD 1060
                          TIME STEP LENGTH =    1.00000    
                        STRESS PERIOD TIME =    1.00000    
                     TOTAL SIMULATION TIME =    1060.00    

end timestep


start timestep kper="1061" kstp="1" mode="normal"


 OUTPUT CONTROL FOR STRESS PERIOD 1061 IS REPEATED USING SETTINGS FROM A PREVIOUS STRESS PERIOD.


 STRESS PERIOD 1061 IS TRANSIENT


 REUSING WELS FROM LAST STRESS PERIOD

 REUSING DRNS FROM LAST STRESS PERIOD

 REUSING RCHS FROM LAST STRESS PERIOD


  VOLUME BUDGET FOR ENTIRE MODEL AT END OF TIME STEP    1, STRESS PERIOD1061
  ---------------------------------------------------------------------------------------------------

     CUMULATIVE VOLUME      L**3       RATES FOR THIS TIME STEP      L**3/T          PACKAGE NAME    
     ------------------                 ------------------------                     ----------------

           IN:                                      IN:
           ---                                      ---
              STO-SS =           0.0000                STO-SS =           0.0000     STORAGE         
              STO-SY = 19572526894.0807                STO-SY =    16235123.2049     STORAGE         
                 WEL =           0.0000                   WEL =           0.0000     WEL_0           
                 DRN =           0.0000                   DRN =           0.0000     DRN_0           
                 RCH = 44689646346.4136                   RCH =    11767200.0948     RCH_0           

            TOTAL IN = 64262173240.4943              TOTAL IN =    28002323.2997

          OUT:                                     OUT:
          ----                                     ----
              STO-SS =           0.0000                STO-SS =           0.0000     STORAGE         
              STO-SY = 16107546036.9032                STO-SY =     2329429.2894     STORAGE         
                 WEL = 10747405224.1649                   WEL =    14095767.2913     WEL_0           
                 DRN = 37407208292.5950                   DRN =    11577126.0061     DRN_0           
                 RCH =           0.0000                   RCH =           0.0000     RCH_0           

           TOTAL OUT = 64262159553.6631             TOTAL OUT =    28002322.5869

            IN - OUT =       13686.8312              IN - OUT =           0.7128

 PERCENT DISCREPANCY =           0.00     PERCENT DISCREPANCY =           0.00




         TIME SUMMARY AT END OF TIME STEP    1 IN STRESS PERIOD 1061
                          TIME STEP LENGTH =    1.00000    
                        STRESS PERIOD TIME =    1.00000    
                     TOTAL SIMULATION TIME =    1061.00    

end timestep


start timestep kper="1062" kstp="1" mode="normal"


 OUTPUT CONTROL FOR STRESS PERIOD 1062 IS REPEATED USING SETTINGS FROM A PREVIOUS STRESS PERIOD.


 STRESS PERIOD 1062 IS TRANSIENT


 REUSING WELS FROM LAST STRESS PERIOD

 REUSING DRNS FROM LAST STRESS PERIOD

 REUSING RCHS FROM LAST STRESS PERIOD


  VOLUME BUDGET FOR ENTIRE MODEL AT END OF TIME STEP    1, STRESS PERIOD1062
  ---------------------------------------------------------------------------------------------------

     CUMULATIVE VOLUME      L**3       RATES FOR THIS TIME STEP      L**3/T          PACKAGE NAME    
     ------------------                 ------------------------                     ----------------

           IN:                                      IN:
           ---                                      ---
              STO-SS =           0.0000                STO-SS =           0.0000     STORAGE         
              STO-SY = 19586244623.5670                STO-SY =    13717729.4863     STORAGE         
                 WEL =           0.0000                   WEL =           0.0000     WEL_0           
                 DRN =           0.0000                   DRN =           0.0000     DRN_0           
                 RCH = 44698469878.3284                   RCH =     8823531.9147     RCH_0           

            TOTAL IN = 64284714501.8954              TOTAL IN =    22541261.4010

          OUT:                                     OUT:
          ----                                     ----
              STO-SS =           0.0000                STO-SS =           0.0000     STORAGE         
              STO-SY = 16109742388.1887                STO-SY =     2196351.2855     STORAGE         
                 WEL = 10757507621.2520                   WEL =    10102397.0871     WEL_0           
                 DRN = 37417450786.5703                   DRN =    10242493.9753     DRN_0           
                 RCH =           0.0000                   RCH =           0.0000     RCH_0           

           TOTAL OUT = 64284700796.0109             TOTAL OUT =    22541242.3479

            IN - OUT =       13705.8844              IN - OUT =          19.0532

 PERCENT DISCREPANCY =           0.00     PERCENT DISCREPANCY =           0.00




         TIME SUMMARY AT END OF TIME STEP    1 IN STRESS PERIOD 1062
                          TIME STEP LENGTH =    1.00000    
                        STRESS PERIOD TIME =    1.00000    
                     TOTAL SIMULATION TIME =    1062.00    

end timestep


start timestep kper="1063" kstp="1" mode="normal"


 OUTPUT CONTROL FOR STRESS PERIOD 1063 IS REPEATED USING SETTINGS FROM A PREVIOUS STRESS PERIOD.


 STRESS PERIOD 1063 IS TRANSIENT


 REUSING WELS FROM LAST STRESS PERIOD

 REUSING DRNS FROM LAST STRESS PERIOD

 REUSING RCHS FROM LAST STRESS PERIOD


  VOLUME BUDGET FOR ENTIRE MODEL AT END OF TIME STEP    1, STRESS PERIOD1063
  ---------------------------------------------------------------------------------------------------

     CUMULATIVE VOLUME      L**3       RATES FOR THIS TIME STEP      L**3/T          PACKAGE NAME    
     ------------------                 ------------------------                     ----------------

           IN:                                      IN:
           ---                                      ---
              STO-SS =           0.0000                STO-SS =           0.0000     STORAGE         
              STO-SY = 19594221650.7718                STO-SY =     7977027.2048     STORAGE         
                 WEL =           0.0000                   WEL =           0.0000     WEL_0           
                 DRN =           0.0000                   DRN =           0.0000     DRN_0           
                 RCH = 44719496024.0890                   RCH =    21026145.7607     RCH_0           

            TOTAL IN = 64313717674.8608              TOTAL IN =    29003172.9654

          OUT:                                     OUT:
          ----                                     ----
              STO-SS =           0.0000                STO-SS =           0.0000     STORAGE         
              STO-SY = 16119734342.5427                STO-SY =     9991954.3540     STORAGE         
                 WEL = 10764397675.9161                   WEL =     6890054.6642     WEL_0           
                 DRN = 37429571954.5256                   DRN =    12121167.9553     DRN_0           
                 RCH =           0.0000                   RCH =           0.0000     RCH_0           

           TOTAL OUT = 64313703972.9845             TOTAL OUT =    29003176.9735

            IN - OUT =       13701.8763              IN - OUT =          -4.0081

 PERCENT DISCREPANCY =           0.00     PERCENT DISCREPANCY =          -0.00




         TIME SUMMARY AT END OF TIME STEP    1 IN STRESS PERIOD 1063
                          TIME STEP LENGTH =    1.00000    
                        STRESS PERIOD TIME =    1.00000    
                     TOTAL SIMULATION TIME =    1063.00    

end timestep


start timestep kper="1064" kstp="1" mode="normal"


 OUTPUT CONTROL FOR STRESS PERIOD 1064 IS REPEATED USING SETTINGS FROM A PREVIOUS STRESS PERIOD.


 STRESS PERIOD 1064 IS TRANSIENT


 REUSING WELS FROM LAST STRESS PERIOD

 REUSING DRNS FROM LAST STRESS PERIOD

 REUSING RCHS FROM LAST STRESS PERIOD


  VOLUME BUDGET FOR ENTIRE MODEL AT END OF TIME STEP    1, STRESS PERIOD1064
  ---------------------------------------------------------------------------------------------------

     CUMULATIVE VOLUME      L**3       RATES FOR THIS TIME STEP      L**3/T          PACKAGE NAME    
     ------------------                 ------------------------                     ----------------

           IN:                                      IN:
           ---                                      ---
              STO-SS =           0.0000                STO-SS =           0.0000     STORAGE         
              STO-SY = 19603754868.2942                STO-SY =     9533217.5225     STORAGE         
                 WEL =           0.0000                   WEL =           0.0000     WEL_0           
                 DRN =           0.0000                   DRN =           0.0000     DRN_0           
                 RCH = 44735913241.6359                   RCH =    16417217.5469     RCH_0           

            TOTAL IN = 64339668109.9302              TOTAL IN =    25950435.0694

          OUT:                                     OUT:
          ----                                     ----
              STO-SS =           0.0000                STO-SS =           0.0000     STORAGE         
              STO-SY = 16125493210.2175                STO-SY =     5758867.6748     STORAGE         
                 WEL = 10773943709.4005                   WEL =     9546033.4843     WEL_0           
                 DRN = 37440217490.6887                   DRN =    10645536.1631     DRN_0           
                 RCH =           0.0000                   RCH =           0.0000     RCH_0           

           TOTAL OUT = 64339654410.3066             TOTAL OUT =    25950437.3222

            IN - OUT =       13699.6235              IN - OUT =          -2.2528

 PERCENT DISCREPANCY =           0.00     PERCENT DISCREPANCY =          -0.00




         TIME SUMMARY AT END OF TIME STEP    1 IN STRESS PERIOD 1064
                          TIME STEP LENGTH =    1.00000    
                        STRESS PERIOD TIME =    1.00000    
                     TOTAL SIMULATION TIME =    1064.00    

end timestep


start timestep kper="1065" kstp="1" mode="normal"


 OUTPUT CONTROL FOR STRESS PERIOD 1065 IS REPEATED USING SETTINGS FROM A PREVIOUS STRESS PERIOD.


 STRESS PERIOD 1065 IS TRANSIENT


 REUSING WELS FROM LAST STRESS PERIOD

 REUSING DRNS FROM LAST STRESS PERIOD

 REUSING RCHS FROM LAST STRESS PERIOD


  VOLUME BUDGET FOR ENTIRE MODEL AT END OF TIME STEP    1, STRESS PERIOD1065
  ---------------------------------------------------------------------------------------------------

     CUMULATIVE VOLUME      L**3       RATES FOR THIS TIME STEP      L**3/T          PACKAGE NAME    
     ------------------                 ------------------------                     ----------------

           IN:                                      IN:
           ---                                      ---
              STO-SS =           0.0000                STO-SS =           0.0000     STORAGE         
              STO-SY = 19614233601.6509                STO-SY =    10478733.3566     STORAGE         
                 WEL =           0.0000                   WEL =           0.0000     WEL_0           
                 DRN =           0.0000                   DRN =           0.0000     DRN_0           
                 RCH = 44748988308.9018                   RCH =    13075067.2659     RCH_0           

            TOTAL IN = 64363221910.5527              TOTAL IN =    23553800.6226

          OUT:                                     OUT:
          ----                                     ----
              STO-SS =           0.0000                STO-SS =           0.0000     STORAGE         
              STO-SY = 16129655504.7975                STO-SY =     4162294.5800     STORAGE         
                 WEL = 10781375784.4251                   WEL =     7432075.0246     WEL_0           
                 DRN = 37452176917.6985                   DRN =    11959427.0098     DRN_0           
                 RCH =           0.0000                   RCH =           0.0000     RCH_0           

           TOTAL OUT = 64363208206.9211             TOTAL OUT =    23553796.6145

            IN - OUT =       13703.6316              IN - OUT =           4.0081

 PERCENT DISCREPANCY =           0.00     PERCENT DISCREPANCY =           0.00




         TIME SUMMARY AT END OF TIME STEP    1 IN STRESS PERIOD 1065
                          TIME STEP LENGTH =    1.00000    
                        STRESS PERIOD TIME =    1.00000    
                     TOTAL SIMULATION TIME =    1065.00    

end timestep


start timestep kper="1066" kstp="1" mode="normal"


 OUTPUT CONTROL FOR STRESS PERIOD 1066 IS REPEATED USING SETTINGS FROM A PREVIOUS STRESS PERIOD.


 STRESS PERIOD 1066 IS TRANSIENT


 REUSING WELS FROM LAST STRESS PERIOD

 REUSING DRNS FROM LAST STRESS PERIOD

 REUSING RCHS FROM LAST STRESS PERIOD


  VOLUME BUDGET FOR ENTIRE MODEL AT END OF TIME STEP    1, STRESS PERIOD1066
  ---------------------------------------------------------------------------------------------------

     CUMULATIVE VOLUME      L**3       RATES FOR THIS TIME STEP      L**3/T          PACKAGE NAME    
     ------------------                 ------------------------                     ----------------

           IN:                                      IN:
           ---                                      ---
              STO-SS =           0.0000                STO-SS =           0.0000     STORAGE         
              STO-SY = 19627984750.8452                STO-SY =    13751149.1943     STORAGE         
                 WEL =           0.0000                   WEL =           0.0000     WEL_0           
                 DRN =           0.0000                   DRN =           0.0000     DRN_0           
                 RCH = 44758819859.0165                   RCH =     9831550.1146     RCH_0           

            TOTAL IN = 64386804609.8616              TOTAL IN =    23582699.3089

          OUT:                                     OUT:
          ----                                     ----
              STO-SS =           0.0000                STO-SS =           0.0000     STORAGE         
              STO-SY = 16132081183.8877                STO-SY =     2425679.0902     STORAGE         
                 WEL = 10792027432.4898                   WEL =    10651648.0648     WEL_0           
                 DRN = 37462682295.5985                   DRN =    10505377.9000     DRN_0           
                 RCH =           0.0000                   RCH =           0.0000     RCH_0           

           TOTAL OUT = 64386790911.9761             TOTAL OUT =    23582705.0550

            IN - OUT =       13697.8856              IN - OUT =          -5.7460

 PERCENT DISCREPANCY =           0.00     PERCENT DISCREPANCY =          -0.00




         TIME SUMMARY AT END OF TIME STEP    1 IN STRESS PERIOD 1066
                          TIME STEP LENGTH =    1.00000    
                        STRESS PERIOD TIME =    1.00000    
                     TOTAL SIMULATION TIME =    1066.00    

end timestep


start timestep kper="1067" kstp="1" mode="normal"


 OUTPUT CONTROL FOR STRESS PERIOD 1067 IS REPEATED USING SETTINGS FROM A PREVIOUS STRESS PERIOD.


 STRESS PERIOD 1067 IS TRANSIENT


 REUSING WELS FROM LAST STRESS PERIOD

 REUSING DRNS FROM LAST STRESS PERIOD

 REUSING RCHS FROM LAST STRESS PERIOD


  VOLUME BUDGET FOR ENTIRE MODEL AT END OF TIME STEP    1, STRESS PERIOD1067
  ---------------------------------------------------------------------------------------------------

     CUMULATIVE VOLUME      L**3       RATES FOR THIS TIME STEP      L**3/T          PACKAGE NAME    
     ------------------                 ------------------------                     ----------------

           IN:                                      IN:
           ---                                      ---
              STO-SS =           0.0000                STO-SS =           0.0000     STORAGE         
              STO-SY = 19643989971.5929                STO-SY =    16005220.7477     STORAGE         
                 WEL =           0.0000                   WEL =           0.0000     WEL_0           
                 DRN =           0.0000                   DRN =           0.0000     DRN_0           
                 RCH = 44770716668.5368                   RCH =    11896809.5203     RCH_0           

            TOTAL IN = 64414706640.1297              TOTAL IN =    27902030.2680

          OUT:                                     OUT:
          ----                                     ----
              STO-SS =           0.0000                STO-SS =           0.0000     STORAGE         
              STO-SY = 16134378753.2218                STO-SY =     2297569.3341     STORAGE         
                 WEL = 10806220124.9867                   WEL =    14192692.4969     WEL_0           
                 DRN = 37474094062.7682                   DRN =    11411767.1697     DRN_0           
                 RCH =           0.0000                   RCH =           0.0000     RCH_0           

           TOTAL OUT = 64414692940.9767             TOTAL OUT =    27902029.0007

            IN - OUT =       13699.1529              IN - OUT =           1.2674

 PERCENT DISCREPANCY =           0.00     PERCENT DISCREPANCY =           0.00




         TIME SUMMARY AT END OF TIME STEP    1 IN STRESS PERIOD 1067
                          TIME STEP LENGTH =    1.00000    
                        STRESS PERIOD TIME =    1.00000    
                     TOTAL SIMULATION TIME =    1067.00    

end timestep


start timestep kper="1068" kstp="1" mode="normal"


 OUTPUT CONTROL FOR STRESS PERIOD 1068 IS REPEATED USING SETTINGS FROM A PREVIOUS STRESS PERIOD.


 STRESS PERIOD 1068 IS TRANSIENT


 REUSING WELS FROM LAST STRESS PERIOD

 REUSING DRNS FROM LAST STRESS PERIOD

 REUSING RCHS FROM LAST STRESS PERIOD


  VOLUME BUDGET FOR ENTIRE MODEL AT END OF TIME STEP    1, STRESS PERIOD1068
  ---------------------------------------------------------------------------------------------------

     CUMULATIVE VOLUME      L**3       RATES FOR THIS TIME STEP      L**3/T          PACKAGE NAME    
     ------------------                 ------------------------                     ----------------

           IN:                                      IN:
           ---                                      ---
              STO-SS =           0.0000                STO-SS =           0.0000     STORAGE         
              STO-SY = 19652285537.2474                STO-SY =     8295565.6545     STORAGE         
                 WEL =           0.0000                   WEL =           0.0000     WEL_0           
                 DRN =           0.0000                   DRN =           0.0000     DRN_0           
                 RCH = 44792238957.7907                   RCH =    21522289.2539     RCH_0           

            TOTAL IN = 64444524495.0381              TOTAL IN =    29817854.9084

          OUT:                                     OUT:
          ----                                     ----
              STO-SS =           0.0000                STO-SS =           0.0000     STORAGE         
              STO-SY = 16146137333.5773                STO-SY =    11758580.3555     STORAGE         
                 WEL = 10812147500.8613                   WEL =     5927375.8746     WEL_0           
                 DRN = 37486225993.2231                   DRN =    12131930.4549     DRN_0           
                 RCH =           0.0000                   RCH =           0.0000     RCH_0           

           TOTAL OUT = 64444510827.6618             TOTAL OUT =    29817886.6851

            IN - OUT =       13667.3763              IN - OUT =         -31.7766

 PERCENT DISCREPANCY =           0.00     PERCENT DISCREPANCY =          -0.00




         TIME SUMMARY AT END OF TIME STEP    1 IN STRESS PERIOD 1068
                          TIME STEP LENGTH =    1.00000    
                        STRESS PERIOD TIME =    1.00000    
                     TOTAL SIMULATION TIME =    1068.00    

end timestep


start timestep kper="1069" kstp="1" mode="normal"


 OUTPUT CONTROL FOR STRESS PERIOD 1069 IS REPEATED USING SETTINGS FROM A PREVIOUS STRESS PERIOD.


 STRESS PERIOD 1069 IS TRANSIENT


 REUSING WELS FROM LAST STRESS PERIOD

 REUSING DRNS FROM LAST STRESS PERIOD

 REUSING RCHS FROM LAST STRESS PERIOD


  VOLUME BUDGET FOR ENTIRE MODEL AT END OF TIME STEP    1, STRESS PERIOD1069
  ---------------------------------------------------------------------------------------------------

     CUMULATIVE VOLUME      L**3       RATES FOR THIS TIME STEP      L**3/T          PACKAGE NAME    
     ------------------                 ------------------------                     ----------------

           IN:                                      IN:
           ---                                      ---
              STO-SS =           0.0000                STO-SS =           0.0000     STORAGE         
              STO-SY = 19666845287.8716                STO-SY =    14559750.6242     STORAGE         
                 WEL =           0.0000                   WEL =           0.0000     WEL_0           
                 DRN =           0.0000                   DRN =           0.0000     DRN_0           
                 RCH = 44802457722.8837                   RCH =    10218765.0931     RCH_0           

            TOTAL IN = 64469303010.7554              TOTAL IN =    24778515.7173

          OUT:                                     OUT:
          ----                                     ----
              STO-SS =           0.0000                STO-SS =           0.0000     STORAGE         
              STO-SY = 16148386259.6436                STO-SY =     2248926.0663     STORAGE         
                 WEL = 10823118633.3934                   WEL =    10971132.5320     WEL_0           
                 DRN = 37497784450.3009                   DRN =    11558457.0777     DRN_0           
                 RCH =           0.0000                   RCH =           0.0000     RCH_0           

           TOTAL OUT = 64469289343.3378             TOTAL OUT =    24778515.6760

            IN - OUT =       13667.4176              IN - OUT =       4.1259E-02

 PERCENT DISCREPANCY =           0.00     PERCENT DISCREPANCY =           0.00




         TIME SUMMARY AT END OF TIME STEP    1 IN STRESS PERIOD 1069
                          TIME STEP LENGTH =    1.00000    
                        STRESS PERIOD TIME =    1.00000    
                     TOTAL SIMULATION TIME =    1069.00    

end timestep


start timestep kper="1070" kstp="1" mode="normal"


 OUTPUT CONTROL FOR STRESS PERIOD 1070 IS REPEATED USING SETTINGS FROM A PREVIOUS STRESS PERIOD.


 STRESS PERIOD 1070 IS TRANSIENT


 REUSING WELS FROM LAST STRESS PERIOD

 REUSING DRNS FROM LAST STRESS PERIOD

 REUSING RCHS FROM LAST STRESS PERIOD


  VOLUME BUDGET FOR ENTIRE MODEL AT END OF TIME STEP    1, STRESS PERIOD1070
  ---------------------------------------------------------------------------------------------------

     CUMULATIVE VOLUME      L**3       RATES FOR THIS TIME STEP      L**3/T          PACKAGE NAME    
     ------------------                 ------------------------                     ----------------

           IN:                                      IN:
           ---                                      ---
              STO-SS =           0.0000                STO-SS =           0.0000     STORAGE         
              STO-SY = 19681231378.1133                STO-SY =    14386090.2416     STORAGE         
                 WEL =           0.0000                   WEL =           0.0000     WEL_0           
                 DRN =           0.0000                   DRN =           0.0000     DRN_0           
                 RCH = 44811300257.9828                   RCH =     8842535.0990     RCH_0           

            TOTAL IN = 64492531636.0960              TOTAL IN =    23228625.3407

          OUT:                                     OUT:
          ----                                     ----
              STO-SS =           0.0000                STO-SS =           0.0000     STORAGE         
              STO-SY = 16150466623.8307                STO-SY =     2080364.1871     STORAGE         
                 WEL = 10834258397.4227                   WEL =    11139764.0294     WEL_0           
                 DRN = 37507792975.2665                   DRN =    10008524.9656     DRN_0           
                 RCH =           0.0000                   RCH =           0.0000     RCH_0           

           TOTAL OUT = 64492517996.5199             TOTAL OUT =    23228653.1821

            IN - OUT =       13639.5761              IN - OUT =         -27.8414

 PERCENT DISCREPANCY =           0.00     PERCENT DISCREPANCY =          -0.00




         TIME SUMMARY AT END OF TIME STEP    1 IN STRESS PERIOD 1070
                          TIME STEP LENGTH =    1.00000    
                        STRESS PERIOD TIME =    1.00000    
                     TOTAL SIMULATION TIME =    1070.00    

end timestep


start timestep kper="1071" kstp="1" mode="normal"


 OUTPUT CONTROL FOR STRESS PERIOD 1071 IS REPEATED USING SETTINGS FROM A PREVIOUS STRESS PERIOD.


 STRESS PERIOD 1071 IS TRANSIENT


 REUSING WELS FROM LAST STRESS PERIOD

 REUSING DRNS FROM LAST STRESS PERIOD

 REUSING RCHS FROM LAST STRESS PERIOD


  VOLUME BUDGET FOR ENTIRE MODEL AT END OF TIME STEP    1, STRESS PERIOD1071
  ---------------------------------------------------------------------------------------------------

     CUMULATIVE VOLUME      L**3       RATES FOR THIS TIME STEP      L**3/T          PACKAGE NAME    
     ------------------                 ------------------------                     ----------------

           IN:                                      IN:
           ---                                      ---
              STO-SS =           0.0000                STO-SS =           0.0000     STORAGE         
              STO-SY = 19693356481.5849                STO-SY =    12125103.4716     STORAGE         
                 WEL =           0.0000                   WEL =           0.0000     WEL_0           
                 DRN =           0.0000                   DRN =           0.0000     DRN_0           
                 RCH = 44819287889.9685                   RCH =     7987631.9857     RCH_0           

            TOTAL IN = 64512644371.5533              TOTAL IN =    20112735.4573

          OUT:                                     OUT:
          ----                                     ----
              STO-SS =           0.0000                STO-SS =           0.0000     STORAGE         
              STO-SY = 16152494268.9705                STO-SY =     2027645.1398     STORAGE         
                 WEL = 10840964047.6019                   WEL =     6705650.1792     WEL_0           
                 DRN = 37519172414.3719                   DRN =    11379439.1054     DRN_0           
                 RCH =           0.0000                   RCH =           0.0000     RCH_0           

           TOTAL OUT = 64512630730.9443             TOTAL OUT =    20112734.4244

            IN - OUT =       13640.6090              IN - OUT =           1.0329

 PERCENT DISCREPANCY =           0.00     PERCENT DISCREPANCY =           0.00




         TIME SUMMARY AT END OF TIME STEP    1 IN STRESS PERIOD 1071
                          TIME STEP LENGTH =    1.00000    
                        STRESS PERIOD TIME =    1.00000    
                     TOTAL SIMULATION TIME =    1071.00    

end timestep


start timestep kper="1072" kstp="1" mode="normal"


 OUTPUT CONTROL FOR STRESS PERIOD 1072 IS REPEATED USING SETTINGS FROM A PREVIOUS STRESS PERIOD.


 STRESS PERIOD 1072 IS TRANSIENT


 REUSING WELS FROM LAST STRESS PERIOD

 REUSING DRNS FROM LAST STRESS PERIOD

 REUSING RCHS FROM LAST STRESS PERIOD


  VOLUME BUDGET FOR ENTIRE MODEL AT END OF TIME STEP    1, STRESS PERIOD1072
  ---------------------------------------------------------------------------------------------------

     CUMULATIVE VOLUME      L**3       RATES FOR THIS TIME STEP      L**3/T          PACKAGE NAME    
     ------------------                 ------------------------                     ----------------

           IN:                                      IN:
           ---                                      ---
              STO-SS =           0.0000                STO-SS =           0.0000     STORAGE         
              STO-SY = 19699886621.3443                STO-SY =     6530139.7594     STORAGE         
                 WEL =           0.0000                   WEL =           0.0000     WEL_0           
                 DRN =           0.0000                   DRN =           0.0000     DRN_0           
                 RCH = 44841539629.6768                   RCH =    22251739.7083     RCH_0           

            TOTAL IN = 64541426251.0210              TOTAL IN =    28781879.4677

          OUT:                                     OUT:
          ----                                     ----
              STO-SS =           0.0000                STO-SS =           0.0000     STORAGE         
              STO-SY = 16162052765.6622                STO-SY =     9558496.6917     STORAGE         
                 WEL = 10849216027.0970                   WEL =     8251979.4951     WEL_0           
                 DRN = 37530143821.4333                   DRN =    10971407.0615     DRN_0           
                 RCH =           0.0000                   RCH =           0.0000     RCH_0           

           TOTAL OUT = 64541412614.1925             TOTAL OUT =    28781883.2483

            IN - OUT =       13636.8285              IN - OUT =          -3.7805

 PERCENT DISCREPANCY =           0.00     PERCENT DISCREPANCY =          -0.00




         TIME SUMMARY AT END OF TIME STEP    1 IN STRESS PERIOD 1072
                          TIME STEP LENGTH =    1.00000    
                        STRESS PERIOD TIME =    1.00000    
                     TOTAL SIMULATION TIME =    1072.00    

end timestep


start timestep kper="1073" kstp="1" mode="normal"


 OUTPUT CONTROL FOR STRESS PERIOD 1073 IS REPEATED USING SETTINGS FROM A PREVIOUS STRESS PERIOD.


 STRESS PERIOD 1073 IS TRANSIENT


 REUSING WELS FROM LAST STRESS PERIOD

 REUSING DRNS FROM LAST STRESS PERIOD

 REUSING RCHS FROM LAST STRESS PERIOD


  VOLUME BUDGET FOR ENTIRE MODEL AT END OF TIME STEP    1, STRESS PERIOD1073
  ---------------------------------------------------------------------------------------------------

     CUMULATIVE VOLUME      L**3       RATES FOR THIS TIME STEP      L**3/T          PACKAGE NAME    
     ------------------                 ------------------------                     ----------------

           IN:                                      IN:
           ---                                      ---
              STO-SS =           0.0000                STO-SS =           0.0000     STORAGE         
              STO-SY = 19707243816.4677                STO-SY =     7357195.1234     STORAGE         
                 WEL =           0.0000                   WEL =           0.0000     WEL_0           
                 DRN =           0.0000                   DRN =           0.0000     DRN_0           
                 RCH = 44868312487.2359                   RCH =    26772857.5591     RCH_0           

            TOTAL IN = 64575556303.7035              TOTAL IN =    34130052.6825

          OUT:                                     OUT:
          ----                                     ----
              STO-SS =           0.0000                STO-SS =           0.0000     STORAGE         
              STO-SY = 16179833214.5152                STO-SY =    17780448.8530     STORAGE         
                 WEL = 10852734824.8338                   WEL =     3518797.7368     WEL_0           
                 DRN = 37542974628.6242                   DRN =    12830807.1909     DRN_0           
                 RCH =           0.0000                   RCH =           0.0000     RCH_0           

           TOTAL OUT = 64575542667.9733             TOTAL OUT =    34130053.7807

            IN - OUT =       13635.7303              IN - OUT =          -1.0982

 PERCENT DISCREPANCY =           0.00     PERCENT DISCREPANCY =          -0.00




         TIME SUMMARY AT END OF TIME STEP    1 IN STRESS PERIOD 1073
                          TIME STEP LENGTH =    1.00000    
                        STRESS PERIOD TIME =    1.00000    
                     TOTAL SIMULATION TIME =    1073.00    

end timestep


start timestep kper="1074" kstp="1" mode="normal"


 OUTPUT CONTROL FOR STRESS PERIOD 1074 IS REPEATED USING SETTINGS FROM A PREVIOUS STRESS PERIOD.


 STRESS PERIOD 1074 IS TRANSIENT


 REUSING WELS FROM LAST STRESS PERIOD

 REUSING DRNS FROM LAST STRESS PERIOD

 REUSING RCHS FROM LAST STRESS PERIOD


  VOLUME BUDGET FOR ENTIRE MODEL AT END OF TIME STEP    1, STRESS PERIOD1074
  ---------------------------------------------------------------------------------------------------

     CUMULATIVE VOLUME      L**3       RATES FOR THIS TIME STEP      L**3/T          PACKAGE NAME    
     ------------------                 ------------------------                     ----------------

           IN:                                      IN:
           ---                                      ---
              STO-SS =           0.0000                STO-SS =           0.0000     STORAGE         
              STO-SY = 19717106083.0348                STO-SY =     9862266.5671     STORAGE         
                 WEL =           0.0000                   WEL =           0.0000     WEL_0           
                 DRN =           0.0000                   DRN =           0.0000     DRN_0           
                 RCH = 44875165489.2116                   RCH =     6853001.9758     RCH_0           

            TOTAL IN = 64592271572.2464              TOTAL IN =    16715268.5429

          OUT:                                     OUT:
          ----                                     ----
              STO-SS =           0.0000                STO-SS =           0.0000     STORAGE         
              STO-SY = 16182363395.9812                STO-SY =     2530181.4660     STORAGE         
                 WEL = 10856234229.3445                   WEL =     3499404.5107     WEL_0           
                 DRN = 37553660322.3608                   DRN =    10685693.7366     DRN_0           
                 RCH =           0.0000                   RCH =           0.0000     RCH_0           

           TOTAL OUT = 64592257947.6866             TOTAL OUT =    16715279.7133

            IN - OUT =       13624.5598              IN - OUT =         -11.1705

 PERCENT DISCREPANCY =           0.00     PERCENT DISCREPANCY =          -0.00




         TIME SUMMARY AT END OF TIME STEP    1 IN STRESS PERIOD 1074
                          TIME STEP LENGTH =    1.00000    
                        STRESS PERIOD TIME =    1.00000    
                     TOTAL SIMULATION TIME =    1074.00    

end timestep


start timestep kper="1075" kstp="1" mode="normal"


 OUTPUT CONTROL FOR STRESS PERIOD 1075 IS REPEATED USING SETTINGS FROM A PREVIOUS STRESS PERIOD.


 STRESS PERIOD 1075 IS TRANSIENT


 REUSING WELS FROM LAST STRESS PERIOD

 REUSING DRNS FROM LAST STRESS PERIOD

 REUSING RCHS FROM LAST STRESS PERIOD


  VOLUME BUDGET FOR ENTIRE MODEL AT END OF TIME STEP    1, STRESS PERIOD1075
  ---------------------------------------------------------------------------------------------------

     CUMULATIVE VOLUME      L**3       RATES FOR THIS TIME STEP      L**3/T          PACKAGE NAME    
     ------------------                 ------------------------                     ----------------

           IN:                                      IN:
           ---                                      ---
              STO-SS =           0.0000                STO-SS =           0.0000     STORAGE         
              STO-SY = 19735678605.2126                STO-SY =    18572522.1778     STORAGE         
                 WEL =           0.0000                   WEL =           0.0000     WEL_0           
                 DRN =           0.0000                   DRN =           0.0000     DRN_0           
                 RCH = 44888790069.7768                   RCH =    13624580.5652     RCH_0           

            TOTAL IN = 64624468674.9894              TOTAL IN =    32197102.7430

          OUT:                                     OUT:
          ----                                     ----
              STO-SS =           0.0000                STO-SS =           0.0000     STORAGE         
              STO-SY = 16185413323.7142                STO-SY =     3049927.7330     STORAGE         
                 WEL = 10873717694.7086                   WEL =    17483465.3641     WEL_0           
                 DRN = 37565324031.9529                   DRN =    11663709.5921     DRN_0           
                 RCH =           0.0000                   RCH =           0.0000     RCH_0           

           TOTAL OUT = 64624455050.3758             TOTAL OUT =    32197102.6892

            IN - OUT =       13624.6136              IN - OUT =       5.3819E-02

 PERCENT DISCREPANCY =           0.00     PERCENT DISCREPANCY =           0.00




         TIME SUMMARY AT END OF TIME STEP    1 IN STRESS PERIOD 1075
                          TIME STEP LENGTH =    1.00000    
                        STRESS PERIOD TIME =    1.00000    
                     TOTAL SIMULATION TIME =    1075.00    

end timestep


start timestep kper="1076" kstp="1" mode="normal"


 OUTPUT CONTROL FOR STRESS PERIOD 1076 IS REPEATED USING SETTINGS FROM A PREVIOUS STRESS PERIOD.


 STRESS PERIOD 1076 IS TRANSIENT


 REUSING WELS FROM LAST STRESS PERIOD

 REUSING DRNS FROM LAST STRESS PERIOD

 REUSING RCHS FROM LAST STRESS PERIOD


  VOLUME BUDGET FOR ENTIRE MODEL AT END OF TIME STEP    1, STRESS PERIOD1076
  ---------------------------------------------------------------------------------------------------

     CUMULATIVE VOLUME      L**3       RATES FOR THIS TIME STEP      L**3/T          PACKAGE NAME    
     ------------------                 ------------------------                     ----------------

           IN:                                      IN:
           ---                                      ---
              STO-SS =           0.0000                STO-SS =           0.0000     STORAGE         
              STO-SY = 19754316778.3287                STO-SY =    18638173.1161     STORAGE         
                 WEL =           0.0000                   WEL =           0.0000     WEL_0           
                 DRN =           0.0000                   DRN =           0.0000     DRN_0           
                 RCH = 44899919960.3305                   RCH =    11129890.5537     RCH_0           

            TOTAL IN = 64654236738.6592              TOTAL IN =    29768063.6698

          OUT:                                     OUT:
          ----                                     ----
              STO-SS =           0.0000                STO-SS =           0.0000     STORAGE         
              STO-SY = 16187488056.4318                STO-SY =     2074732.7176     STORAGE         
                 WEL = 10891312698.6871                   WEL =    17595003.9785     WEL_0           
                 DRN = 37575422348.5421                   DRN =    10098316.5891     DRN_0           
                 RCH =           0.0000                   RCH =           0.0000     RCH_0           

           TOTAL OUT = 64654223103.6609             TOTAL OUT =    29768053.2852

            IN - OUT =       13634.9983              IN - OUT =          10.3847

 PERCENT DISCREPANCY =           0.00     PERCENT DISCREPANCY =           0.00




         TIME SUMMARY AT END OF TIME STEP    1 IN STRESS PERIOD 1076
                          TIME STEP LENGTH =    1.00000    
                        STRESS PERIOD TIME =    1.00000    
                     TOTAL SIMULATION TIME =    1076.00    

end timestep


start timestep kper="1077" kstp="1" mode="normal"


 OUTPUT CONTROL FOR STRESS PERIOD 1077 IS REPEATED USING SETTINGS FROM A PREVIOUS STRESS PERIOD.


 STRESS PERIOD 1077 IS TRANSIENT


 REUSING WELS FROM LAST STRESS PERIOD

 REUSING DRNS FROM LAST STRESS PERIOD

 REUSING RCHS FROM LAST STRESS PERIOD


  VOLUME BUDGET FOR ENTIRE MODEL AT END OF TIME STEP    1, STRESS PERIOD1077
  ---------------------------------------------------------------------------------------------------

     CUMULATIVE VOLUME      L**3       RATES FOR THIS TIME STEP      L**3/T          PACKAGE NAME    
     ------------------                 ------------------------                     ----------------

           IN:                                      IN:
           ---                                      ---
              STO-SS =           0.0000                STO-SS =           0.0000     STORAGE         
              STO-SY = 19768620856.5392                STO-SY =    14304078.2104     STORAGE         
                 WEL =           0.0000                   WEL =           0.0000     WEL_0           
                 DRN =           0.0000                   DRN =           0.0000     DRN_0           
                 RCH = 44909437175.4240                   RCH =     9517215.0936     RCH_0           

            TOTAL IN = 64678058031.9632              TOTAL IN =    23821293.3040

          OUT:                                     OUT:
          ----                                     ----
              STO-SS =           0.0000                STO-SS =           0.0000     STORAGE         
              STO-SY = 16189413424.3208                STO-SY =     1925367.8891     STORAGE         
                 WEL = 10902745201.5921                   WEL =    11432502.9050     WEL_0           
                 DRN = 37585885772.0165                   DRN =    10463423.4744     DRN_0           
                 RCH =           0.0000                   RCH =           0.0000     RCH_0           

           TOTAL OUT = 64678044397.9294             TOTAL OUT =    23821294.2685

            IN - OUT =       13634.0338              IN - OUT =          -0.9645

 PERCENT DISCREPANCY =           0.00     PERCENT DISCREPANCY =          -0.00




         TIME SUMMARY AT END OF TIME STEP    1 IN STRESS PERIOD 1077
                          TIME STEP LENGTH =    1.00000    
                        STRESS PERIOD TIME =    1.00000    
                     TOTAL SIMULATION TIME =    1077.00    

end timestep


start timestep kper="1078" kstp="1" mode="normal"


 OUTPUT CONTROL FOR STRESS PERIOD 1078 IS REPEATED USING SETTINGS FROM A PREVIOUS STRESS PERIOD.


 STRESS PERIOD 1078 IS TRANSIENT


 REUSING WELS FROM LAST STRESS PERIOD

 REUSING DRNS FROM LAST STRESS PERIOD

 REUSING RCHS FROM LAST STRESS PERIOD


  VOLUME BUDGET FOR ENTIRE MODEL AT END OF TIME STEP    1, STRESS PERIOD1078
  ---------------------------------------------------------------------------------------------------

     CUMULATIVE VOLUME      L**3       RATES FOR THIS TIME STEP      L**3/T          PACKAGE NAME    
     ------------------                 ------------------------                     ----------------

           IN:                                      IN:
           ---                                      ---
              STO-SS =           0.0000                STO-SS =           0.0000     STORAGE         
              STO-SY = 19784959909.2812                STO-SY =    16339052.7421     STORAGE         
                 WEL =           0.0000                   WEL =           0.0000     WEL_0           
                 DRN =           0.0000                   DRN =           0.0000     DRN_0           
                 RCH = 44919190066.8231                   RCH =     9752891.3991     RCH_0           

            TOTAL IN = 64704149976.1043              TOTAL IN =    26091944.1411

          OUT:                                     OUT:
          ----                                     ----
              STO-SS =           0.0000                STO-SS =           0.0000     STORAGE         
              STO-SY = 16191342991.8102                STO-SY =     1929567.4893     STORAGE         
                 WEL = 10917099373.1973                   WEL =    14354171.6052     WEL_0           
                 DRN = 37595693978.2234                   DRN =     9808206.2070     DRN_0           
                 RCH =           0.0000                   RCH =           0.0000     RCH_0           

           TOTAL OUT = 64704136343.2309             TOTAL OUT =    26091945.3014

            IN - OUT =       13632.8735              IN - OUT =          -1.1603

 PERCENT DISCREPANCY =           0.00     PERCENT DISCREPANCY =          -0.00




         TIME SUMMARY AT END OF TIME STEP    1 IN STRESS PERIOD 1078
                          TIME STEP LENGTH =    1.00000    
                        STRESS PERIOD TIME =    1.00000    
                     TOTAL SIMULATION TIME =    1078.00    

end timestep


start timestep kper="1079" kstp="1" mode="normal"


 OUTPUT CONTROL FOR STRESS PERIOD 1079 IS REPEATED USING SETTINGS FROM A PREVIOUS STRESS PERIOD.


 STRESS PERIOD 1079 IS TRANSIENT


 REUSING WELS FROM LAST STRESS PERIOD

 REUSING DRNS FROM LAST STRESS PERIOD

 REUSING RCHS FROM LAST STRESS PERIOD


  VOLUME BUDGET FOR ENTIRE MODEL AT END OF TIME STEP    1, STRESS PERIOD1079
  ---------------------------------------------------------------------------------------------------

     CUMULATIVE VOLUME      L**3       RATES FOR THIS TIME STEP      L**3/T          PACKAGE NAME    
     ------------------                 ------------------------                     ----------------

           IN:                                      IN:
           ---                                      ---
              STO-SS =           0.0000                STO-SS =           0.0000     STORAGE         
              STO-SY = 19797509598.4702                STO-SY =    12549689.1889     STORAGE         
                 WEL =           0.0000                   WEL =           0.0000     WEL_0           
                 DRN =           0.0000                   DRN =           0.0000     DRN_0           
                 RCH = 44927212307.4047                   RCH =     8022240.5816     RCH_0           

            TOTAL IN = 64724721905.8749              TOTAL IN =    20571929.7705

          OUT:                                     OUT:
          ----                                     ----
              STO-SS =           0.0000                STO-SS =           0.0000     STORAGE         
              STO-SY = 16193425874.6735                STO-SY =     2082882.8633     STORAGE         
                 WEL = 10925434159.1079                   WEL =     8334785.9106     WEL_0           
                 DRN = 37605848239.7638                   DRN =    10154261.5404     DRN_0           
                 RCH =           0.0000                   RCH =           0.0000     RCH_0           

           TOTAL OUT = 64724708273.5452             TOTAL OUT =    20571930.3143

            IN - OUT =       13632.3297              IN - OUT =          -0.5437

 PERCENT DISCREPANCY =           0.00     PERCENT DISCREPANCY =          -0.00




         TIME SUMMARY AT END OF TIME STEP    1 IN STRESS PERIOD 1079
                          TIME STEP LENGTH =    1.00000    
                        STRESS PERIOD TIME =    1.00000    
                     TOTAL SIMULATION TIME =    1079.00    

end timestep


start timestep kper="1080" kstp="1" mode="normal"


 OUTPUT CONTROL FOR STRESS PERIOD 1080 IS REPEATED USING SETTINGS FROM A PREVIOUS STRESS PERIOD.


 STRESS PERIOD 1080 IS TRANSIENT


 REUSING WELS FROM LAST STRESS PERIOD

 REUSING DRNS FROM LAST STRESS PERIOD

 REUSING RCHS FROM LAST STRESS PERIOD


  VOLUME BUDGET FOR ENTIRE MODEL AT END OF TIME STEP    1, STRESS PERIOD1080
  ---------------------------------------------------------------------------------------------------

     CUMULATIVE VOLUME      L**3       RATES FOR THIS TIME STEP      L**3/T          PACKAGE NAME    
     ------------------                 ------------------------                     ----------------

           IN:                                      IN:
           ---                                      ---
              STO-SS =           0.0000                STO-SS =           0.0000     STORAGE         
              STO-SY = 19810104747.2501                STO-SY =    12595148.7799     STORAGE         
                 WEL =           0.0000                   WEL =           0.0000     WEL_0           
                 DRN =           0.0000                   DRN =           0.0000     DRN_0           
                 RCH = 44935280576.7753                   RCH =     8068269.3706     RCH_0           

            TOTAL IN = 64745385324.0254              TOTAL IN =    20663418.1505

          OUT:                                     OUT:
          ----                                     ----
              STO-SS =           0.0000                STO-SS =           0.0000     STORAGE         
              STO-SY = 16195676297.2403                STO-SY =     2250422.5668     STORAGE         
                 WEL = 10934066657.1275                   WEL =     8632498.0196     WEL_0           
                 DRN = 37615628737.2850                   DRN =     9780497.5213     DRN_0           
                 RCH =           0.0000                   RCH =           0.0000     RCH_0           

           TOTAL OUT = 64745371691.6528             TOTAL OUT =    20663418.1077

            IN - OUT =       13632.3725              IN - OUT =       4.2797E-02

 PERCENT DISCREPANCY =           0.00     PERCENT DISCREPANCY =           0.00




         TIME SUMMARY AT END OF TIME STEP    1 IN STRESS PERIOD 1080
                          TIME STEP LENGTH =    1.00000    
                        STRESS PERIOD TIME =    1.00000    
                     TOTAL SIMULATION TIME =    1080.00    

end timestep


start timestep kper="1081" kstp="1" mode="normal"


 OUTPUT CONTROL FOR STRESS PERIOD 1081 IS REPEATED USING SETTINGS FROM A PREVIOUS STRESS PERIOD.


 STRESS PERIOD 1081 IS TRANSIENT


 REUSING WELS FROM LAST STRESS PERIOD

 REUSING DRNS FROM LAST STRESS PERIOD

 REUSING RCHS FROM LAST STRESS PERIOD


  VOLUME BUDGET FOR ENTIRE MODEL AT END OF TIME STEP    1, STRESS PERIOD1081
  ---------------------------------------------------------------------------------------------------

     CUMULATIVE VOLUME      L**3       RATES FOR THIS TIME STEP      L**3/T          PACKAGE NAME    
     ------------------                 ------------------------                     ----------------

           IN:                                      IN:
           ---                                      ---
              STO-SS =           0.0000                STO-SS =           0.0000     STORAGE         
              STO-SY = 19823270626.6901                STO-SY =    13165879.4401     STORAGE         
                 WEL =           0.0000                   WEL =           0.0000     WEL_0           
                 DRN =           0.0000                   DRN =           0.0000     DRN_0           
                 RCH = 44943442256.9829                   RCH =     8161680.2077     RCH_0           

            TOTAL IN = 64766712883.6731              TOTAL IN =    21327559.6477

          OUT:                                     OUT:
          ----                                     ----
              STO-SS =           0.0000                STO-SS =           0.0000     STORAGE         
              STO-SY = 16197814050.8241                STO-SY =     2137753.5838     STORAGE         
                 WEL = 10943235740.5962                   WEL =     9169083.4687     WEL_0           
                 DRN = 37625649459.9140                   DRN =    10020722.6290     DRN_0           
                 RCH =           0.0000                   RCH =           0.0000     RCH_0           

           TOTAL OUT = 64766699251.3344             TOTAL OUT =    21327559.6815

            IN - OUT =       13632.3387              IN - OUT =      -3.3793E-02

 PERCENT DISCREPANCY =           0.00     PERCENT DISCREPANCY =          -0.00




         TIME SUMMARY AT END OF TIME STEP    1 IN STRESS PERIOD 1081
                          TIME STEP LENGTH =    1.00000    
                        STRESS PERIOD TIME =    1.00000    
                     TOTAL SIMULATION TIME =    1081.00    

end timestep


start timestep kper="1082" kstp="1" mode="normal"


 OUTPUT CONTROL FOR STRESS PERIOD 1082 IS REPEATED USING SETTINGS FROM A PREVIOUS STRESS PERIOD.


 STRESS PERIOD 1082 IS TRANSIENT


 REUSING WELS FROM LAST STRESS PERIOD

 REUSING DRNS FROM LAST STRESS PERIOD

 REUSING RCHS FROM LAST STRESS PERIOD


  VOLUME BUDGET FOR ENTIRE MODEL AT END OF TIME STEP    1, STRESS PERIOD1082
  ---------------------------------------------------------------------------------------------------

     CUMULATIVE VOLUME      L**3       RATES FOR THIS TIME STEP      L**3/T          PACKAGE NAME    
     ------------------                 ------------------------                     ----------------

           IN:                                      IN:
           ---                                      ---
              STO-SS =           0.0000                STO-SS =           0.0000     STORAGE         
              STO-SY = 19834923213.8177                STO-SY =    11652587.1275     STORAGE         
                 WEL =           0.0000                   WEL =           0.0000     WEL_0           
                 DRN =           0.0000                   DRN =           0.0000     DRN_0           
                 RCH = 44950625094.1838                   RCH =     7182837.2009     RCH_0           

            TOTAL IN = 64785548308.0015              TOTAL IN =    18835424.3284

          OUT:                                     OUT:
          ----                                     ----
              STO-SS =           0.0000                STO-SS =           0.0000     STORAGE         
              STO-SY = 16200136304.2522                STO-SY =     2322253.4281     STORAGE         
                 WEL = 10949965095.1418                   WEL =     6729354.5456     WEL_0           
                 DRN = 37635433383.3146                   DRN =     9783923.4006     DRN_0           
                 RCH =           0.0000                   RCH =           0.0000     RCH_0           

           TOTAL OUT = 64785534782.7086             TOTAL OUT =    18835531.3742

            IN - OUT =       13525.2929              IN - OUT =        -107.0458

 PERCENT DISCREPANCY =           0.00     PERCENT DISCREPANCY =          -0.00




         TIME SUMMARY AT END OF TIME STEP    1 IN STRESS PERIOD 1082
                          TIME STEP LENGTH =    1.00000    
                        STRESS PERIOD TIME =    1.00000    
                     TOTAL SIMULATION TIME =    1082.00    

end timestep


start timestep kper="1083" kstp="1" mode="normal"


 OUTPUT CONTROL FOR STRESS PERIOD 1083 IS REPEATED USING SETTINGS FROM A PREVIOUS STRESS PERIOD.


 STRESS PERIOD 1083 IS TRANSIENT


 REUSING WELS FROM LAST STRESS PERIOD

 REUSING DRNS FROM LAST STRESS PERIOD

 REUSING RCHS FROM LAST STRESS PERIOD


  VOLUME BUDGET FOR ENTIRE MODEL AT END OF TIME STEP    1, STRESS PERIOD1083
  ---------------------------------------------------------------------------------------------------

     CUMULATIVE VOLUME      L**3       RATES FOR THIS TIME STEP      L**3/T          PACKAGE NAME    
     ------------------                 ------------------------                     ----------------

           IN:                                      IN:
           ---                                      ---
              STO-SS =           0.0000                STO-SS =           0.0000     STORAGE         
              STO-SY = 19844416949.5469                STO-SY =     9493735.7292     STORAGE         
                 WEL =           0.0000                   WEL =           0.0000     WEL_0           
                 DRN =           0.0000                   DRN =           0.0000     DRN_0           
                 RCH = 44965664500.8723                   RCH =    15039406.6885     RCH_0           

            TOTAL IN = 64810081450.4192              TOTAL IN =    24533142.4177

          OUT:                                     OUT:
          ----                                     ----
              STO-SS =           0.0000                STO-SS =           0.0000     STORAGE         
              STO-SY = 16207053189.8121                STO-SY =     6916885.5599     STORAGE         
                 WEL = 10957335543.4697                   WEL =     7370448.3279     WEL_0           
                 DRN = 37645679191.5656                   DRN =    10245808.2510     DRN_0           
                 RCH =           0.0000                   RCH =           0.0000     RCH_0           

           TOTAL OUT = 64810067924.8473             TOTAL OUT =    24533142.1387

            IN - OUT =       13525.5719              IN - OUT =           0.2790

 PERCENT DISCREPANCY =           0.00     PERCENT DISCREPANCY =           0.00




         TIME SUMMARY AT END OF TIME STEP    1 IN STRESS PERIOD 1083
                          TIME STEP LENGTH =    1.00000    
                        STRESS PERIOD TIME =    1.00000    
                     TOTAL SIMULATION TIME =    1083.00    

end timestep


start timestep kper="1084" kstp="1" mode="normal"


 OUTPUT CONTROL FOR STRESS PERIOD 1084 IS REPEATED USING SETTINGS FROM A PREVIOUS STRESS PERIOD.


 STRESS PERIOD 1084 IS TRANSIENT


 REUSING WELS FROM LAST STRESS PERIOD

 REUSING DRNS FROM LAST STRESS PERIOD

 REUSING RCHS FROM LAST STRESS PERIOD


  VOLUME BUDGET FOR ENTIRE MODEL AT END OF TIME STEP    1, STRESS PERIOD1084
  ---------------------------------------------------------------------------------------------------

     CUMULATIVE VOLUME      L**3       RATES FOR THIS TIME STEP      L**3/T          PACKAGE NAME    
     ------------------                 ------------------------                     ----------------

           IN:                                      IN:
           ---                                      ---
              STO-SS =           0.0000                STO-SS =           0.0000     STORAGE         
              STO-SY = 19855033483.7707                STO-SY =    10616534.2238     STORAGE         
                 WEL =           0.0000                   WEL =           0.0000     WEL_0           
                 DRN =           0.0000                   DRN =           0.0000     DRN_0           
                 RCH = 44976527765.4356                   RCH =    10863264.5633     RCH_0           

            TOTAL IN = 64831561249.2063              TOTAL IN =    21479798.7871

          OUT:                                     OUT:
          ----                                     ----
              STO-SS =           0.0000                STO-SS =           0.0000     STORAGE         
              STO-SY = 16212041022.4196                STO-SY =     4987832.6075     STORAGE         
                 WEL = 10964181738.1989                   WEL =     6846194.7292     WEL_0           
                 DRN = 37655324963.4748                   DRN =     9645771.9093     DRN_0           
                 RCH =           0.0000                   RCH =           0.0000     RCH_0           

           TOTAL OUT = 64831547724.0934             TOTAL OUT =    21479799.2460

            IN - OUT =       13525.1129              IN - OUT =          -0.4589

 PERCENT DISCREPANCY =           0.00     PERCENT DISCREPANCY =          -0.00




         TIME SUMMARY AT END OF TIME STEP    1 IN STRESS PERIOD 1084
                          TIME STEP LENGTH =    1.00000    
                        STRESS PERIOD TIME =    1.00000    
                     TOTAL SIMULATION TIME =    1084.00    

end timestep


start timestep kper="1085" kstp="1" mode="normal"


 OUTPUT CONTROL FOR STRESS PERIOD 1085 IS REPEATED USING SETTINGS FROM A PREVIOUS STRESS PERIOD.


 STRESS PERIOD 1085 IS TRANSIENT


 REUSING WELS FROM LAST STRESS PERIOD

 REUSING DRNS FROM LAST STRESS PERIOD

 REUSING RCHS FROM LAST STRESS PERIOD


  VOLUME BUDGET FOR ENTIRE MODEL AT END OF TIME STEP    1, STRESS PERIOD1085
  ---------------------------------------------------------------------------------------------------

     CUMULATIVE VOLUME      L**3       RATES FOR THIS TIME STEP      L**3/T          PACKAGE NAME    
     ------------------                 ------------------------                     ----------------

           IN:                                      IN:
           ---                                      ---
              STO-SS =           0.0000                STO-SS =           0.0000     STORAGE         
              STO-SY = 19862416771.1171                STO-SY =     7383287.3464     STORAGE         
                 WEL =           0.0000                   WEL =           0.0000     WEL_0           
                 DRN =           0.0000                   DRN =           0.0000     DRN_0           
                 RCH = 44998636651.6220                   RCH =    22108886.1864     RCH_0           

            TOTAL IN = 64861053422.7391              TOTAL IN =    29492173.5328

          OUT:                                     OUT:
          ----                                     ----
              STO-SS =           0.0000                STO-SS =           0.0000     STORAGE         
              STO-SY = 16224321600.2468                STO-SY =    12280577.8272     STORAGE         
                 WEL = 10970588290.8083                   WEL =     6406552.6094     WEL_0           
                 DRN = 37666130006.8372                   DRN =    10805043.3624     DRN_0           
                 RCH =           0.0000                   RCH =           0.0000     RCH_0           

           TOTAL OUT = 64861039897.8924             TOTAL OUT =    29492173.7990

            IN - OUT =       13524.8467              IN - OUT =          -0.2662

 PERCENT DISCREPANCY =           0.00     PERCENT DISCREPANCY =          -0.00




         TIME SUMMARY AT END OF TIME STEP    1 IN STRESS PERIOD 1085
                          TIME STEP LENGTH =    1.00000    
                        STRESS PERIOD TIME =    1.00000    
                     TOTAL SIMULATION TIME =    1085.00    

end timestep


start timestep kper="1086" kstp="1" mode="normal"


 OUTPUT CONTROL FOR STRESS PERIOD 1086 IS REPEATED USING SETTINGS FROM A PREVIOUS STRESS PERIOD.


 STRESS PERIOD 1086 IS TRANSIENT


 REUSING WELS FROM LAST STRESS PERIOD

 REUSING DRNS FROM LAST STRESS PERIOD

 REUSING RCHS FROM LAST STRESS PERIOD


  VOLUME BUDGET FOR ENTIRE MODEL AT END OF TIME STEP    1, STRESS PERIOD1086
  ---------------------------------------------------------------------------------------------------

     CUMULATIVE VOLUME      L**3       RATES FOR THIS TIME STEP      L**3/T          PACKAGE NAME    
     ------------------                 ------------------------                     ----------------

           IN:                                      IN:
           ---                                      ---
              STO-SS =           0.0000                STO-SS =           0.0000     STORAGE         
              STO-SY = 19882126750.3048                STO-SY =    19709979.1877     STORAGE         
                 WEL =           0.0000                   WEL =           0.0000     WEL_0           
                 DRN =           0.0000                   DRN =           0.0000     DRN_0           
                 RCH = 45019197515.4655                   RCH =    20560863.8435     RCH_0           

            TOTAL IN = 64901324265.7703              TOTAL IN =    40270843.0312

          OUT:                                     OUT:
          ----                                     ----
              STO-SS =           0.0000                STO-SS =           0.0000     STORAGE         
              STO-SY = 16233670967.2449                STO-SY =     9349366.9981     STORAGE         
                 WEL = 10991841147.2378                   WEL =    21252856.4295     WEL_0           
                 DRN = 37675798618.8830                   DRN =     9668612.0457     DRN_0           
                 RCH =           0.0000                   RCH =           0.0000     RCH_0           

           TOTAL OUT = 64901310733.3657             TOTAL OUT =    40270835.4733

            IN - OUT =       13532.4046              IN - OUT =           7.5579

 PERCENT DISCREPANCY =           0.00     PERCENT DISCREPANCY =           0.00




         TIME SUMMARY AT END OF TIME STEP    1 IN STRESS PERIOD 1086
                          TIME STEP LENGTH =    1.00000    
                        STRESS PERIOD TIME =    1.00000    
                     TOTAL SIMULATION TIME =    1086.00    

end timestep


start timestep kper="1087" kstp="1" mode="normal"


 OUTPUT CONTROL FOR STRESS PERIOD 1087 IS REPEATED USING SETTINGS FROM A PREVIOUS STRESS PERIOD.


 STRESS PERIOD 1087 IS TRANSIENT


 REUSING WELS FROM LAST STRESS PERIOD

 REUSING DRNS FROM LAST STRESS PERIOD

 REUSING RCHS FROM LAST STRESS PERIOD


  VOLUME BUDGET FOR ENTIRE MODEL AT END OF TIME STEP    1, STRESS PERIOD1087
  ---------------------------------------------------------------------------------------------------

     CUMULATIVE VOLUME      L**3       RATES FOR THIS TIME STEP      L**3/T          PACKAGE NAME    
     ------------------                 ------------------------                     ----------------

           IN:                                      IN:
           ---                                      ---
              STO-SS =           0.0000                STO-SS =           0.0000     STORAGE         
              STO-SY = 19903459669.8666                STO-SY =    21332919.5617     STORAGE         
                 WEL =           0.0000                   WEL =           0.0000     WEL_0           
                 DRN =           0.0000                   DRN =           0.0000     DRN_0           
                 RCH = 45031191862.2584                   RCH =    11994346.7930     RCH_0           

            TOTAL IN = 64934651532.1250              TOTAL IN =    33327266.3547

          OUT:                                     OUT:
          ----                                     ----
              STO-SS =           0.0000                STO-SS =           0.0000     STORAGE         
              STO-SY = 16235768220.3893                STO-SY =     2097253.1444     STORAGE         
                 WEL = 11013442667.0398                   WEL =    21601519.8020     WEL_0           
                 DRN = 37685427109.9556                   DRN =     9628491.0726     DRN_0           
                 RCH =           0.0000                   RCH =           0.0000     RCH_0           

           TOTAL OUT = 64934637997.3847             TOTAL OUT =    33327264.0190

            IN - OUT =       13534.7403              IN - OUT =           2.3357

 PERCENT DISCREPANCY =           0.00     PERCENT DISCREPANCY =           0.00




         TIME SUMMARY AT END OF TIME STEP    1 IN STRESS PERIOD 1087
                          TIME STEP LENGTH =    1.00000    
                        STRESS PERIOD TIME =    1.00000    
                     TOTAL SIMULATION TIME =    1087.00    

end timestep


start timestep kper="1088" kstp="1" mode="normal"


 OUTPUT CONTROL FOR STRESS PERIOD 1088 IS REPEATED USING SETTINGS FROM A PREVIOUS STRESS PERIOD.


 STRESS PERIOD 1088 IS TRANSIENT


 REUSING WELS FROM LAST STRESS PERIOD

 REUSING DRNS FROM LAST STRESS PERIOD

 REUSING RCHS FROM LAST STRESS PERIOD


  VOLUME BUDGET FOR ENTIRE MODEL AT END OF TIME STEP    1, STRESS PERIOD1088
  ---------------------------------------------------------------------------------------------------

     CUMULATIVE VOLUME      L**3       RATES FOR THIS TIME STEP      L**3/T          PACKAGE NAME    
     ------------------                 ------------------------                     ----------------

           IN:                                      IN:
           ---                                      ---
              STO-SS =           0.0000                STO-SS =           0.0000     STORAGE         
              STO-SY = 19919662714.9439                STO-SY =    16203045.0773     STORAGE         
                 WEL =           0.0000                   WEL =           0.0000     WEL_0           
                 DRN =           0.0000                   DRN =           0.0000     DRN_0           
                 RCH = 45040930739.8221                   RCH =     9738877.5636     RCH_0           

            TOTAL IN = 64960593454.7659              TOTAL IN =    25941922.6409

          OUT:                                     OUT:
          ----                                     ----
              STO-SS =           0.0000                STO-SS =           0.0000     STORAGE         
              STO-SY = 16237690269.1341                STO-SY =     1922048.7448     STORAGE         
                 WEL = 11028218124.1823                   WEL =    14775457.1425     WEL_0           
                 DRN = 37694671526.6163                   DRN =     9244416.6607     DRN_0           
                 RCH =           0.0000                   RCH =           0.0000     RCH_0           

           TOTAL OUT = 64960579919.9327             TOTAL OUT =    25941922.5480

            IN - OUT =       13534.8332              IN - OUT =       9.2929E-02

 PERCENT DISCREPANCY =           0.00     PERCENT DISCREPANCY =           0.00




         TIME SUMMARY AT END OF TIME STEP    1 IN STRESS PERIOD 1088
                          TIME STEP LENGTH =    1.00000    
                        STRESS PERIOD TIME =    1.00000    
                     TOTAL SIMULATION TIME =    1088.00    

end timestep


start timestep kper="1089" kstp="1" mode="normal"


 OUTPUT CONTROL FOR STRESS PERIOD 1089 IS REPEATED USING SETTINGS FROM A PREVIOUS STRESS PERIOD.


 STRESS PERIOD 1089 IS TRANSIENT


 REUSING WELS FROM LAST STRESS PERIOD

 REUSING DRNS FROM LAST STRESS PERIOD

 REUSING RCHS FROM LAST STRESS PERIOD


  VOLUME BUDGET FOR ENTIRE MODEL AT END OF TIME STEP    1, STRESS PERIOD1089
  ---------------------------------------------------------------------------------------------------

     CUMULATIVE VOLUME      L**3       RATES FOR THIS TIME STEP      L**3/T          PACKAGE NAME    
     ------------------                 ------------------------                     ----------------

           IN:                                      IN:
           ---                                      ---
              STO-SS =           0.0000                STO-SS =           0.0000     STORAGE         
              STO-SY = 19937063613.5910                STO-SY =    17400898.6471     STORAGE         
                 WEL =           0.0000                   WEL =           0.0000     WEL_0           
                 DRN =           0.0000                   DRN =           0.0000     DRN_0           
                 RCH = 45051205019.6429                   RCH =    10274279.8209     RCH_0           

            TOTAL IN = 64988268633.2339              TOTAL IN =    27675178.4680

          OUT:                                     OUT:
          ----                                     ----
              STO-SS =           0.0000                STO-SS =           0.0000     STORAGE         
              STO-SY = 16239675562.6992                STO-SY =     1985293.5651     STORAGE         
                 WEL = 11044686107.7099                   WEL =    16467983.5276     WEL_0           
                 DRN = 37703893428.9743                   DRN =     9221902.3581     DRN_0           
                 RCH =           0.0000                   RCH =           0.0000     RCH_0           

           TOTAL OUT = 64988255099.3835             TOTAL OUT =    27675179.4508

            IN - OUT =       13533.8504              IN - OUT =          -0.9828

 PERCENT DISCREPANCY =           0.00     PERCENT DISCREPANCY =          -0.00




         TIME SUMMARY AT END OF TIME STEP    1 IN STRESS PERIOD 1089
                          TIME STEP LENGTH =    1.00000    
                        STRESS PERIOD TIME =    1.00000    
                     TOTAL SIMULATION TIME =    1089.00    

end timestep


start timestep kper="1090" kstp="1" mode="normal"


 OUTPUT CONTROL FOR STRESS PERIOD 1090 IS REPEATED USING SETTINGS FROM A PREVIOUS STRESS PERIOD.


 STRESS PERIOD 1090 IS TRANSIENT


 REUSING WELS FROM LAST STRESS PERIOD

 REUSING DRNS FROM LAST STRESS PERIOD

 REUSING RCHS FROM LAST STRESS PERIOD


  VOLUME BUDGET FOR ENTIRE MODEL AT END OF TIME STEP    1, STRESS PERIOD1090
  ---------------------------------------------------------------------------------------------------

     CUMULATIVE VOLUME      L**3       RATES FOR THIS TIME STEP      L**3/T          PACKAGE NAME    
     ------------------                 ------------------------                     ----------------

           IN:                                      IN:
           ---                                      ---
              STO-SS =           0.0000                STO-SS =           0.0000     STORAGE         
              STO-SY = 19954553148.5713                STO-SY =    17489534.9803     STORAGE         
                 WEL =           0.0000                   WEL =           0.0000     WEL_0           
                 DRN =           0.0000                   DRN =           0.0000     DRN_0           
                 RCH = 45060465797.3423                   RCH =     9260777.6993     RCH_0           

            TOTAL IN = 65015018945.9135              TOTAL IN =    26750312.6796

          OUT:                                     OUT:
          ----                                     ----
              STO-SS =           0.0000                STO-SS =           0.0000     STORAGE         
              STO-SY = 16241418667.5259                STO-SY =     1743104.8267     STORAGE         
                 WEL = 11060739196.7475                   WEL =    16053089.0377     WEL_0           
                 DRN = 37712847547.7647                   DRN =     8954118.7904     DRN_0           
                 RCH =           0.0000                   RCH =           0.0000     RCH_0           

           TOTAL OUT = 65015005412.0381             TOTAL OUT =    26750312.6547

            IN - OUT =       13533.8754              IN - OUT =       2.4931E-02

 PERCENT DISCREPANCY =           0.00     PERCENT DISCREPANCY =           0.00




         TIME SUMMARY AT END OF TIME STEP    1 IN STRESS PERIOD 1090
                          TIME STEP LENGTH =    1.00000    
                        STRESS PERIOD TIME =    1.00000    
                     TOTAL SIMULATION TIME =    1090.00    

end timestep


start timestep kper="1091" kstp="1" mode="normal"


 OUTPUT CONTROL FOR STRESS PERIOD 1091 IS REPEATED USING SETTINGS FROM A PREVIOUS STRESS PERIOD.


 STRESS PERIOD 1091 IS TRANSIENT


 REUSING WELS FROM LAST STRESS PERIOD

 REUSING DRNS FROM LAST STRESS PERIOD

 REUSING RCHS FROM LAST STRESS PERIOD


  VOLUME BUDGET FOR ENTIRE MODEL AT END OF TIME STEP    1, STRESS PERIOD1091
  ---------------------------------------------------------------------------------------------------

     CUMULATIVE VOLUME      L**3       RATES FOR THIS TIME STEP      L**3/T          PACKAGE NAME    
     ------------------                 ------------------------                     ----------------

           IN:                                      IN:
           ---                                      ---
              STO-SS =           0.0000                STO-SS =           0.0000     STORAGE         
              STO-SY = 19963195595.6145                STO-SY =     8642447.0433     STORAGE         
                 WEL =           0.0000                   WEL =           0.0000     WEL_0           
                 DRN =           0.0000                   DRN =           0.0000     DRN_0           
                 RCH = 45074712312.5452                   RCH =    14246515.2029     RCH_0           

            TOTAL IN = 65037907908.1597              TOTAL IN =    22888962.2462

          OUT:                                     OUT:
          ----                                     ----
              STO-SS =           0.0000                STO-SS =           0.0000     STORAGE         
              STO-SY = 16247107463.3287                STO-SY =     5688795.8028     STORAGE         
                 WEL = 11068428351.7215                   WEL =     7689154.9739     WEL_0           
                 DRN = 37722358541.4244                   DRN =     9510993.6597     DRN_0           
                 RCH =           0.0000                   RCH =           0.0000     RCH_0           

           TOTAL OUT = 65037894356.4746             TOTAL OUT =    22888944.4365

            IN - OUT =       13551.6850              IN - OUT =          17.8097

 PERCENT DISCREPANCY =           0.00     PERCENT DISCREPANCY =           0.00




         TIME SUMMARY AT END OF TIME STEP    1 IN STRESS PERIOD 1091
                          TIME STEP LENGTH =    1.00000    
                        STRESS PERIOD TIME =    1.00000    
                     TOTAL SIMULATION TIME =    1091.00    

end timestep


start timestep kper="1092" kstp="1" mode="normal"


 OUTPUT CONTROL FOR STRESS PERIOD 1092 IS REPEATED USING SETTINGS FROM A PREVIOUS STRESS PERIOD.


 STRESS PERIOD 1092 IS TRANSIENT


 REUSING WELS FROM LAST STRESS PERIOD

 REUSING DRNS FROM LAST STRESS PERIOD

 REUSING RCHS FROM LAST STRESS PERIOD


  VOLUME BUDGET FOR ENTIRE MODEL AT END OF TIME STEP    1, STRESS PERIOD1092
  ---------------------------------------------------------------------------------------------------

     CUMULATIVE VOLUME      L**3       RATES FOR THIS TIME STEP      L**3/T          PACKAGE NAME    
     ------------------                 ------------------------                     ----------------

           IN:                                      IN:
           ---                                      ---
              STO-SS =           0.0000                STO-SS =           0.0000     STORAGE         
              STO-SY = 19967761261.6480                STO-SY =     4565666.0335     STORAGE         
                 WEL =           0.0000                   WEL =           0.0000     WEL_0           
                 DRN =           0.0000                   DRN =           0.0000     DRN_0           
                 RCH = 45113410902.7654                   RCH =    38698590.2203     RCH_0           

            TOTAL IN = 65081172164.4134              TOTAL IN =    43264256.2537

          OUT:                                     OUT:
          ----                                     ----
              STO-SS =           0.0000                STO-SS =           0.0000     STORAGE         
              STO-SY = 16272086017.7662                STO-SY =    24978554.4375     STORAGE         
                 WEL = 11075445531.7963                   WEL =     7017180.0748     WEL_0           
                 DRN = 37733627063.1564                   DRN =    11268521.7320     DRN_0           
                 RCH =           0.0000                   RCH =           0.0000     RCH_0           

           TOTAL OUT = 65081158612.7189             TOTAL OUT =    43264256.2443

            IN - OUT =       13551.6945              IN - OUT =       9.4293E-03

 PERCENT DISCREPANCY =           0.00     PERCENT DISCREPANCY =           0.00




         TIME SUMMARY AT END OF TIME STEP    1 IN STRESS PERIOD 1092
                          TIME STEP LENGTH =    1.00000    
                        STRESS PERIOD TIME =    1.00000    
                     TOTAL SIMULATION TIME =    1092.00    

end timestep


start timestep kper="1093" kstp="1" mode="normal"


 OUTPUT CONTROL FOR STRESS PERIOD 1093 IS REPEATED USING SETTINGS FROM A PREVIOUS STRESS PERIOD.


 STRESS PERIOD 1093 IS TRANSIENT


 REUSING WELS FROM LAST STRESS PERIOD

 REUSING DRNS FROM LAST STRESS PERIOD

 REUSING RCHS FROM LAST STRESS PERIOD


  VOLUME BUDGET FOR ENTIRE MODEL AT END OF TIME STEP    1, STRESS PERIOD1093
  ---------------------------------------------------------------------------------------------------

     CUMULATIVE VOLUME      L**3       RATES FOR THIS TIME STEP      L**3/T          PACKAGE NAME    
     ------------------                 ------------------------                     ----------------

           IN:                                      IN:
           ---                                      ---
              STO-SS =           0.0000                STO-SS =           0.0000     STORAGE         
              STO-SY = 19980077790.3127                STO-SY =    12316528.6647     STORAGE         
                 WEL =           0.0000                   WEL =           0.0000     WEL_0           
                 DRN =           0.0000                   DRN =           0.0000     DRN_0           
                 RCH = 45120920705.9506                   RCH =     7509803.1852     RCH_0           

            TOTAL IN = 65100998496.2633              TOTAL IN =    19826331.8498

          OUT:                                     OUT:
          ----                                     ----
              STO-SS =           0.0000                STO-SS =           0.0000     STORAGE         
              STO-SY = 16274326462.5276                STO-SY =     2240444.7614     STORAGE         
                 WEL = 11083883899.1822                   WEL =     8438367.3859     WEL_0           
                 DRN = 37742774589.6799                   DRN =     9147526.5234     DRN_0           
                 RCH =           0.0000                   RCH =           0.0000     RCH_0           

           TOTAL OUT = 65100984951.3896             TOTAL OUT =    19826338.6707

            IN - OUT =       13544.8736              IN - OUT =          -6.8208

 PERCENT DISCREPANCY =           0.00     PERCENT DISCREPANCY =          -0.00




         TIME SUMMARY AT END OF TIME STEP    1 IN STRESS PERIOD 1093
                          TIME STEP LENGTH =    1.00000    
                        STRESS PERIOD TIME =    1.00000    
                     TOTAL SIMULATION TIME =    1093.00    

end timestep


start timestep kper="1094" kstp="1" mode="normal"


 OUTPUT CONTROL FOR STRESS PERIOD 1094 IS REPEATED USING SETTINGS FROM A PREVIOUS STRESS PERIOD.


 STRESS PERIOD 1094 IS TRANSIENT


 REUSING WELS FROM LAST STRESS PERIOD

 REUSING DRNS FROM LAST STRESS PERIOD

 REUSING RCHS FROM LAST STRESS PERIOD


  VOLUME BUDGET FOR ENTIRE MODEL AT END OF TIME STEP    1, STRESS PERIOD1094
  ---------------------------------------------------------------------------------------------------

     CUMULATIVE VOLUME      L**3       RATES FOR THIS TIME STEP      L**3/T          PACKAGE NAME    
     ------------------                 ------------------------                     ----------------

           IN:                                      IN:
           ---                                      ---
              STO-SS =           0.0000                STO-SS =           0.0000     STORAGE         
              STO-SY = 19988813880.8940                STO-SY =     8736090.5814     STORAGE         
                 WEL =           0.0000                   WEL =           0.0000     WEL_0           
                 DRN =           0.0000                   DRN =           0.0000     DRN_0           
                 RCH = 45138362657.5964                   RCH =    17441951.6458     RCH_0           

            TOTAL IN = 65127176538.4904              TOTAL IN =    26178042.2271

          OUT:                                     OUT:
          ----                                     ----
              STO-SS =           0.0000                STO-SS =           0.0000     STORAGE         
              STO-SY = 16281725693.8895                STO-SY =     7399231.3620     STORAGE         
                 WEL = 11092672283.1933                   WEL =     8788384.0111     WEL_0           
                 DRN = 37752765015.9814                   DRN =     9990426.3015     DRN_0           
                 RCH =           0.0000                   RCH =           0.0000     RCH_0           

           TOTAL OUT = 65127162993.0642             TOTAL OUT =    26178041.6745

            IN - OUT =       13545.4262              IN - OUT =           0.5526

 PERCENT DISCREPANCY =           0.00     PERCENT DISCREPANCY =           0.00




         TIME SUMMARY AT END OF TIME STEP    1 IN STRESS PERIOD 1094
                          TIME STEP LENGTH =    1.00000    
                        STRESS PERIOD TIME =    1.00000    
                     TOTAL SIMULATION TIME =    1094.00    

end timestep


start timestep kper="1095" kstp="1" mode="normal"


 OUTPUT CONTROL FOR STRESS PERIOD 1095 IS REPEATED USING SETTINGS FROM A PREVIOUS STRESS PERIOD.


 STRESS PERIOD 1095 IS TRANSIENT


 REUSING WELS FROM LAST STRESS PERIOD

 REUSING DRNS FROM LAST STRESS PERIOD

 REUSING RCHS FROM LAST STRESS PERIOD


  VOLUME BUDGET FOR ENTIRE MODEL AT END OF TIME STEP    1, STRESS PERIOD1095
  ---------------------------------------------------------------------------------------------------

     CUMULATIVE VOLUME      L**3       RATES FOR THIS TIME STEP      L**3/T          PACKAGE NAME    
     ------------------                 ------------------------                     ----------------

           IN:                                      IN:
           ---                                      ---
              STO-SS =           0.0000                STO-SS =           0.0000     STORAGE         
              STO-SY = 20004402175.7547                STO-SY =    15588294.8606     STORAGE         
                 WEL =           0.0000                   WEL =           0.0000     WEL_0           
                 DRN =           0.0000                   DRN =           0.0000     DRN_0           
                 RCH = 45145825543.0359                   RCH =     7462885.4395     RCH_0           

            TOTAL IN = 65150227718.7906              TOTAL IN =    23051180.3002

          OUT:                                     OUT:
          ----                                     ----
              STO-SS =           0.0000                STO-SS =           0.0000     STORAGE         
              STO-SY = 16283369253.5664                STO-SY =     1643559.6768     STORAGE         
                 WEL = 11104990932.5144                   WEL =    12318649.3211     WEL_0           
                 DRN = 37761853988.8017                   DRN =     9088972.8204     DRN_0           
                 RCH =           0.0000                   RCH =           0.0000     RCH_0           

           TOTAL OUT = 65150214174.8825             TOTAL OUT =    23051181.8183

            IN - OUT =       13543.9081              IN - OUT =          -1.5181

 PERCENT DISCREPANCY =           0.00     PERCENT DISCREPANCY =          -0.00




         TIME SUMMARY AT END OF TIME STEP    1 IN STRESS PERIOD 1095
                          TIME STEP LENGTH =    1.00000    
                        STRESS PERIOD TIME =    1.00000    
                     TOTAL SIMULATION TIME =    1095.00    

end timestep


start timestep kper="1096" kstp="1" mode="normal"


 OUTPUT CONTROL FOR STRESS PERIOD 1096 IS REPEATED USING SETTINGS FROM A PREVIOUS STRESS PERIOD.


 STRESS PERIOD 1096 IS TRANSIENT


 REUSING WELS FROM LAST STRESS PERIOD

 REUSING DRNS FROM LAST STRESS PERIOD

 REUSING RCHS FROM LAST STRESS PERIOD


  VOLUME BUDGET FOR ENTIRE MODEL AT END OF TIME STEP    1, STRESS PERIOD1096
  ---------------------------------------------------------------------------------------------------

     CUMULATIVE VOLUME      L**3       RATES FOR THIS TIME STEP      L**3/T          PACKAGE NAME    
     ------------------                 ------------------------                     ----------------

           IN:                                      IN:
           ---                                      ---
              STO-SS =           0.0000                STO-SS =           0.0000     STORAGE         
              STO-SY = 20021685310.7352                STO-SY =    17283134.9806     STORAGE         
                 WEL =           0.0000                   WEL =           0.0000     WEL_0           
                 DRN =           0.0000                   DRN =           0.0000     DRN_0           
                 RCH = 45155270996.0884                   RCH =     9445453.0524     RCH_0           

            TOTAL IN = 65176956306.8236              TOTAL IN =    26728588.0330

          OUT:                                     OUT:
          ----                                     ----
              STO-SS =           0.0000                STO-SS =           0.0000     STORAGE         
              STO-SY = 16285180177.4054                STO-SY =     1810923.8390     STORAGE         
                 WEL = 11120608059.6594                   WEL =    15617127.1451     WEL_0           
                 DRN = 37771154524.4749                   DRN =     9300535.6731     DRN_0           
                 RCH =           0.0000                   RCH =           0.0000     RCH_0           

           TOTAL OUT = 65176942761.5397             TOTAL OUT =    26728586.6572

            IN - OUT =       13545.2839              IN - OUT =           1.3758

 PERCENT DISCREPANCY =           0.00     PERCENT DISCREPANCY =           0.00




         TIME SUMMARY AT END OF TIME STEP    1 IN STRESS PERIOD 1096
                          TIME STEP LENGTH =    1.00000    
                        STRESS PERIOD TIME =    1.00000    
                     TOTAL SIMULATION TIME =    1096.00    

end timestep


start timestep kper="1097" kstp="1" mode="normal"


 OUTPUT CONTROL FOR STRESS PERIOD 1097 IS REPEATED USING SETTINGS FROM A PREVIOUS STRESS PERIOD.


 STRESS PERIOD 1097 IS TRANSIENT


 REUSING WELS FROM LAST STRESS PERIOD

 REUSING DRNS FROM LAST STRESS PERIOD

 REUSING RCHS FROM LAST STRESS PERIOD


  VOLUME BUDGET FOR ENTIRE MODEL AT END OF TIME STEP    1, STRESS PERIOD1097
  ---------------------------------------------------------------------------------------------------

     CUMULATIVE VOLUME      L**3       RATES FOR THIS TIME STEP      L**3/T          PACKAGE NAME    
     ------------------                 ------------------------                     ----------------

           IN:                                      IN:
           ---                                      ---
              STO-SS =           0.0000                STO-SS =           0.0000     STORAGE         
              STO-SY = 20068812091.3164                STO-SY =    47126780.5812     STORAGE         
                 WEL =           0.0000                   WEL =           0.0000     WEL_0           
                 DRN =           0.0000                   DRN =           0.0000     DRN_0           
                 RCH = 45172766379.6943                   RCH =    17495383.6059     RCH_0           

            TOTAL IN = 65241578471.0107              TOTAL IN =    64622164.1871

          OUT:                                     OUT:
          ----                                     ----
              STO-SS =           0.0000                STO-SS =           0.0000     STORAGE         
              STO-SY = 16287560795.8941                STO-SY =     2380618.4888     STORAGE         
                 WEL = 11174775977.9833                   WEL =    54167918.3239     WEL_0           
                 DRN = 37779228142.1120                   DRN =     8073617.6371     DRN_0           
                 RCH =           0.0000                   RCH =           0.0000     RCH_0           

           TOTAL OUT = 65241564915.9894             TOTAL OUT =    64622154.4497

            IN - OUT =       13555.0213              IN - OUT =           9.7374

 PERCENT DISCREPANCY =           0.00     PERCENT DISCREPANCY =           0.00




         TIME SUMMARY AT END OF TIME STEP    1 IN STRESS PERIOD 1097
                          TIME STEP LENGTH =    1.00000    
                        STRESS PERIOD TIME =    1.00000    
                     TOTAL SIMULATION TIME =    1097.00    

end timestep

